Network_09R-195/scenario_131/case.raw
0,100.0,33,0,1,60.0
GRID OPTIMIZATION COMPETITION
INPUT DATA FILES ARE RAW ROP INL CON
1,'A1',13.0,1,1,1,1,0.99928,-30.3872,1.05,0.945,1.1,0.9
2,'A2',13.0,2,1,1,1,0.9973,-30.4315,1.05,0.945,1.1,0.9
3,'A3',69.0,1,1,1,1,1.00221,-29.6723,1.05,0.945,1.1,0.9
4,'A4',13.0,1,1,1,1,0.99932,-30.3832,1.05,0.945,1.1,0.9
5,'A5',13.0,2,1,1,1,0.9973,-30.4315,1.05,0.945,1.1,0.9
6,'A6',69.0,2,1,1,1,1.0,-28.6136,1.05,0.945,1.1,0.9
7,'A7',13.0,1,1,1,1,1.00806,-30.6504,1.05,0.945,1.1,0.9
8,'A8',13.0,1,1,1,1,0.99865,-30.2817,1.05,0.945,1.1,0.9
9,'A9',69.0,2,1,1,1,1.0,-30.1462,1.05,0.945,1.1,0.9
10,'A10',69.0,1,1,1,1,0.9973,-30.4315,1.05,0.945,1.1,0.9
11,'A11',69.0,1,1,1,1,1.00303,-29.54,1.05,0.945,1.1,0.9
12,'A12',69.0,1,1,1,1,0.99884,-30.2437,1.05,0.945,1.1,0.9
13,'A13',69.0,1,1,1,1,0.99685,-30.5399,1.05,0.945,1.1,0.9
14,'A14',69.0,1,1,1,1,0.99642,-30.577,1.05,0.945,1.1,0.9
15,'A15',69.0,1,1,1,1,0.99779,-30.3778,1.05,0.945,1.1,0.9
16,'A16',69.0,2,1,1,1,1.0,-30.231,1.05,0.945,1.1,0.9
17,'A17',69.0,1,1,1,1,1.00134,-29.4908,1.05,0.945,1.1,0.9
18,'A18',69.0,1,1,1,1,0.99943,-30.2704,1.05,0.945,1.1,0.9
19,'A19',69.0,1,1,1,1,0.99823,-30.5666,1.05,0.945,1.1,0.9
20,'A20',13.0,1,1,1,1,0.99691,-30.5223,1.05,0.945,1.1,0.9
21,'A21',13.0,1,1,1,1,1.00754,-30.5099,1.05,0.945,1.1,0.9
22,'A22',13.0,1,1,1,1,0.99621,-30.6341,1.05,0.945,1.1,0.9
23,'A23',69.0,2,1,1,1,1.00223,-28.251,1.05,0.945,1.1,0.9
24,'A24',13.0,1,1,1,1,0.99859,-30.2583,1.05,0.945,1.1,0.9
25,'A25',69.0,1,1,1,1,1.00285,-29.7949,1.05,0.945,1.1,0.9
26,'A26',69.0,2,1,1,1,1.0,-30.3575,1.05,0.945,1.1,0.9
27,'A27',13.0,1,1,1,1,1.00666,-30.6634,1.05,0.945,1.1,0.9
28,'B28',230.0,1,1,2,1,0.98615,-29.1211,1.05,0.945,1.1,0.9
29,'B29',1.0,1,1,2,1,1.01992,-28.7484,1.05,0.945,1.1,0.9
30,'B30',115.0,1,1,2,1,0.98544,-25.7987,1.05,0.945,1.1,0.9
31,'B31',115.0,1,1,2,1,1.00474,-25.5785,1.05,0.945,1.1,0.9
32,'B32',115.0,1,1,2,1,0.98932,-35.5252,1.05,0.945,1.1,0.9
33,'B33',230.0,1,1,2,1,1.00086,-30.9104,1.05,0.945,1.1,0.9
34,'B34',115.0,1,1,2,1,0.99859,-23.6773,1.05,0.945,1.1,0.9
35,'B35',115.0,1,1,2,1,0.99151,-31.5272,1.05,0.945,1.1,0.9
36,'B36',115.0,1,1,2,1,1.00721,-30.7671,1.05,0.945,1.1,0.9
37,'B37',115.0,1,1,2,1,0.98744,-28.8653,1.05,0.945,1.1,0.9
38,'B38',115.0,1,1,2,1,1.01106,-30.4683,1.05,0.945,1.1,0.9
39,'B39',230.0,1,1,2,1,1.02006,-34.7544,1.05,0.945,1.1,0.9
40,'B40',230.0,1,1,2,1,1.0057,-25.6559,1.05,0.945,1.1,0.9
41,'B41',345.0,1,1,2,1,1.01772,-29.039,1.05,0.945,1.1,0.9
42,'B42',115.0,1,1,2,1,1.00474,-25.5784,1.05,0.945,1.1,0.9
43,'B43',230.0,2,1,2,1,0.99587,-33.5229,1.05,0.945,1.1,0.9
44,'B44',230.0,1,1,2,1,0.99414,-34.2461,1.05,0.945,1.1,0.9
45,'B45',230.0,1,1,2,1,1.00029,-36.6924,1.05,0.945,1.1,0.9
46,'B46',500.0,2,1,2,1,0.992,-26.4608,1.05,0.945,1.1,0.9
47,'B47',1.0,1,1,2,1,1.01992,-28.7484,1.05,0.945,1.1,0.9
48,'B48',22.8,2,1,2,1,1.006,-23.6068,1.05,0.945,1.1,0.9
49,'B49',230.0,1,1,2,1,1.0142,-31.2835,1.05,0.945,1.1,0.9
50,'B50',345.0,2,1,2,1,1.00266,-27.4477,1.05,0.945,1.1,0.9
51,'B51',138.0,1,1,2,1,0.9821,-25.772,1.05,0.945,1.1,0.9
52,'B52',21.0,2,1,2,1,1.00431,-23.5255,1.05,0.945,1.1,0.9
53,'B53',230.0,1,1,2,1,0.99712,-35.8146,1.05,0.945,1.1,0.9
54,'B54',115.0,2,1,2,1,1.0361,-34.6323,1.05,0.945,1.1,0.9
55,'B55',115.0,1,1,2,1,0.9979,-25.0372,1.05,0.945,1.1,0.9
56,'B56',115.0,1,1,2,1,0.98728,-28.8754,1.05,0.945,1.1,0.9
57,'B57',161.0,1,1,2,1,0.97239,-40.3407,1.05,0.945,1.1,0.9
58,'B58',230.0,1,1,2,1,0.98783,-28.918,1.05,0.945,1.1,0.9
59,'B59',161.0,2,1,2,1,0.985,-41.7375,1.05,0.945,1.1,0.9
60,'B60',115.0,1,1,2,1,0.99709,-25.3025,1.05,0.945,1.1,0.9
61,'B61',115.0,1,1,2,1,0.98118,-29.7455,1.05,0.945,1.1,0.9
62,'B62',230.0,1,1,2,1,0.99523,-38.3204,1.05,0.945,1.1,0.9
63,'B63',138.0,1,1,2,1,0.9842,-25.7969,1.05,0.945,1.1,0.9
64,'B64',230.0,1,1,2,1,0.99877,-24.0244,1.05,0.945,1.1,0.9
65,'B65',230.0,1,1,2,1,0.99981,-24.6734,1.05,0.945,1.1,0.9
66,'B66',230.0,1,1,2,1,0.99553,-25.9062,1.05,0.945,1.1,0.9
67,'B67',230.0,1,1,2,1,1.00206,-24.5293,1.05,0.945,1.1,0.9
68,'B68',161.0,1,1,2,1,0.98902,-33.2801,1.05,0.945,1.1,0.9
69,'B69',230.0,2,1,2,1,0.99255,-39.1242,1.05,0.945,1.1,0.9
70,'B70',230.0,2,1,2,1,0.98773,-28.932,1.05,0.945,1.1,0.9
71,'B71',115.0,1,1,2,1,0.99862,-23.6775,1.05,0.945,1.1,0.9
72,'B72',230.0,1,1,2,1,1.00093,-34.995,1.05,0.945,1.1,0.9
73,'B73',1.0,2,1,2,1,1.00171,-30.1893,1.05,0.945,1.1,0.9
74,'B74',115.0,1,1,2,1,1.01303,-34.192,1.05,0.945,1.1,0.9
75,'B75',230.0,1,1,2,1,1.01408,-33.3559,1.05,0.945,1.1,0.9
76,'B76',115.0,1,1,2,1,1.01414,-29.3083,1.05,0.945,1.1,0.9
77,'B77',230.0,1,1,2,1,1.01246,-31.1006,1.05,0.945,1.1,0.9
78,'B78',1.0,2,1,2,1,1.00655,-28.7389,1.05,0.945,1.1,0.9
79,'B79',230.0,1,1,2,1,0.99882,-36.2023,1.05,0.945,1.1,0.9
80,'B80',500.0,1,1,2,1,1.02214,-28.4591,1.05,0.945,1.1,0.9
81,'B81',230.0,1,1,2,1,1.00142,-29.941,1.05,0.945,1.1,0.9
82,'C82',35.0,1,1,3,1,0.99146,-41.1246,1.05,0.945,1.1,0.9
83,'C83',115.0,1,1,3,1,0.99779,-36.5742,1.05,0.945,1.1,0.9
84,'C84',35.0,1,1,3,1,1.00618,-40.0409,1.05,0.945,1.1,0.9
85,'C85',115.0,1,1,3,1,1.01083,-40.919,1.05,0.945,1.1,0.9
86,'C86',4.0,1,1,3,1,1.01967,-39.7542,1.05,0.945,1.1,0.9
87,'C87',35.0,1,1,3,1,1.01538,-38.6702,1.05,0.945,1.1,0.9
88,'C88',22.0,1,1,3,1,1.01659,-39.8133,1.05,0.945,1.1,0.9
89,'C89',13.0,2,1,3,1,1.0062,-33.3892,1.05,0.945,1.1,0.9
90,'C90',115.0,2,1,3,1,0.99987,-37.0429,1.05,0.945,1.1,0.9
91,'C91',230.0,1,1,3,1,1.00521,-39.0037,1.05,0.945,1.1,0.9
92,'C92',115.0,1,1,3,1,1.02902,-32.8875,1.05,0.945,1.1,0.9
93,'C93',13.0,1,1,3,1,1.00587,-36.7332,1.05,0.945,1.1,0.9
94,'C94',230.0,1,1,3,1,1.0154,-33.1841,1.05,0.945,1.1,0.9
95,'C95',35.0,1,1,3,1,1.01734,-35.1297,1.05,0.945,1.1,0.9
96,'C96',115.0,1,1,3,1,0.99677,-40.2707,1.05,0.945,1.1,0.9
97,'C97',230.0,1,1,3,1,1.00202,-33.4063,1.05,0.945,1.1,0.9
98,'C98',230.0,1,1,3,1,1.00164,-35.7328,1.05,0.945,1.1,0.9
99,'C99',35.0,1,1,3,1,0.98862,-40.8413,1.05,0.945,1.1,0.9
100,'C100',35.0,1,1,3,1,1.01242,-37.3113,1.05,0.945,1.1,0.9
101,'C101',115.0,1,1,3,1,0.99735,-36.5201,1.05,0.945,1.1,0.9
102,'C102',20.0,2,1,3,1,1.0057,-41.2568,1.05,0.945,1.1,0.9
103,'C103',35.0,1,1,3,1,1.01111,-39.601,1.05,0.945,1.1,0.9
104,'C104',35.0,1,1,3,1,0.99202,-36.4792,1.05,0.945,1.1,0.9
105,'C105',35.0,1,1,3,1,1.01027,-36.6153,1.05,0.945,1.1,0.9
106,'C106',35.0,1,1,3,1,1.00113,-38.2583,1.05,0.945,1.1,0.9
107,'C107',115.0,1,1,3,1,0.99354,-36.2946,1.05,0.945,1.1,0.9
108,'C108',35.0,1,1,3,1,1.00382,-38.975,1.05,0.945,1.1,0.9
109,'C109',230.0,1,1,3,1,1.01431,-39.0493,1.05,0.945,1.1,0.9
110,'C110',115.0,1,1,3,1,1.00326,-39.1278,1.05,0.945,1.1,0.9
111,'C111',500.0,1,1,3,1,0.99843,-33.0479,1.05,0.945,1.1,0.9
112,'C112',35.0,1,1,3,1,0.98076,-41.9685,1.05,0.945,1.1,0.9
113,'C113',7.0,1,1,3,1,1.00691,-29.8874,1.05,0.945,1.1,0.9
114,'C114',13.0,1,1,3,1,1.00437,-36.4284,1.05,0.945,1.1,0.9
115,'C115',115.0,1,1,3,1,1.00577,-40.9483,1.05,0.945,1.1,0.9
116,'C116',13.0,1,1,3,1,1.00253,-36.3932,1.05,0.945,1.1,0.9
117,'C117',13.0,1,1,3,1,0.99567,-35.9454,1.05,0.945,1.1,0.9
118,'C118',500.0,1,1,3,1,1.02126,-30.2417,1.05,0.945,1.1,0.9
119,'C119',115.0,1,1,3,1,0.99295,-36.3665,1.05,0.945,1.1,0.9
120,'C120',4.0,1,1,3,1,1.00643,-41.2275,1.05,0.945,1.1,0.9
121,'C121',230.0,1,1,3,1,1.00293,-39.4055,1.05,0.945,1.1,0.9
122,'C122',22.0,2,1,3,1,1.01328,-31.7041,1.05,0.945,1.1,0.9
123,'C123',13.0,1,1,3,1,1.00312,-36.5804,1.05,0.945,1.1,0.9
124,'C124',230.0,1,1,3,1,1.00191,-35.3412,1.05,0.945,1.1,0.9
125,'C125',115.0,1,1,3,1,1.00409,-40.7052,1.05,0.945,1.1,0.9
126,'C126',115.0,1,1,3,1,1.01431,-33.7867,1.05,0.945,1.1,0.9
127,'C127',13.0,1,1,3,1,1.00833,-36.7085,1.05,0.945,1.1,0.9
128,'C128',14.0,2,1,3,1,0.99749,-34.9163,1.05,0.945,1.1,0.9
129,'C129',115.0,2,1,3,1,0.99989,-39.5828,1.05,0.945,1.1,0.9
130,'C130',500.0,1,1,3,1,1.03876,-33.2045,1.05,0.945,1.1,0.9
131,'C131',22.0,1,1,3,1,1.01485,-40.3114,1.05,0.945,1.1,0.9
132,'C132',230.0,1,1,3,1,1.00858,-35.3684,1.05,0.945,1.1,0.9
133,'C133',22.0,1,1,3,1,1.00877,-41.4317,1.05,0.945,1.1,0.9
134,'C134',115.0,1,1,3,1,1.00057,-36.2176,1.05,0.945,1.1,0.9
135,'C135',35.0,1,1,3,1,0.99313,-39.1915,1.05,0.945,1.1,0.9
136,'C136',230.0,1,1,3,1,1.02362,-38.839,1.05,0.945,1.1,0.9
137,'C137',14.0,2,1,3,1,0.99421,-34.6795,1.05,0.945,1.1,0.9
138,'C138',13.0,1,1,3,1,1.00896,-36.1849,1.05,0.945,1.1,0.9
139,'C139',35.0,1,1,3,1,0.98879,-36.3056,1.05,0.945,1.1,0.9
140,'C140',20.0,2,1,3,1,1.03966,-27.7766,1.05,0.945,1.1,0.9
141,'C141',230.0,1,1,3,1,1.00386,-39.0109,1.05,0.945,1.1,0.9
142,'C142',230.0,1,1,3,1,1.00375,-38.212,1.05,0.945,1.1,0.9
143,'C143',4.0,1,1,3,1,1.01251,-41.4858,1.05,0.945,1.1,0.9
144,'C144',35.0,1,1,3,1,1.00583,-32.3409,1.05,0.945,1.1,0.9
145,'C145',14.0,2,1,3,1,1.00298,-33.4056,1.05,0.945,1.1,0.9
146,'C146',500.0,2,1,3,1,1.02178,-31.0487,1.05,0.945,1.1,0.9
147,'C147',230.0,1,1,3,1,1.0092,-39.6609,1.05,0.945,1.1,0.9
148,'C148',230.0,1,1,3,1,1.00415,-34.6795,1.05,0.945,1.1,0.9
149,'C149',13.0,1,1,3,1,1.00436,-37.8581,1.05,0.945,1.1,0.9
150,'C150',115.0,1,1,3,1,1.00339,-37.363,1.05,0.945,1.1,0.9
151,'C151',230.0,1,1,3,1,1.00996,-35.3254,1.05,0.945,1.1,0.9
152,'C152',230.0,1,1,3,1,1.00605,-35.6905,1.05,0.945,1.1,0.9
153,'C153',35.0,1,1,3,1,0.9979,-34.6909,1.05,0.945,1.1,0.9
154,'C154',35.0,1,1,3,1,0.99474,-36.1377,1.05,0.945,1.1,0.9
155,'C155',230.0,1,1,3,1,1.00435,-37.3712,1.05,0.945,1.1,0.9
156,'C156',500.0,1,1,3,1,1.0103,-36.48,1.05,0.945,1.1,0.9
157,'C157',35.0,1,1,3,1,1.01563,-37.0427,1.05,0.945,1.1,0.9
158,'C158',35.0,1,1,3,1,1.01235,-39.1307,1.05,0.945,1.1,0.9
159,'C159',36.5,1,1,3,1,1.00668,-34.9034,1.05,0.945,1.1,0.9
160,'C160',34.5,1,1,3,1,1.01418,-35.4479,1.05,0.945,1.1,0.9
161,'C161',35.0,1,1,3,1,0.99908,-35.8184,1.05,0.945,1.1,0.9
162,'C162',13.0,1,1,3,1,1.01117,-41.5975,1.05,0.945,1.1,0.9
163,'C163',13.0,2,1,3,1,0.9943,-37.4412,1.05,0.945,1.1,0.9
164,'C164',115.0,1,1,3,1,1.00138,-37.6319,1.05,0.945,1.1,0.9
165,'C165',500.0,1,1,3,1,1.00903,-35.5666,1.05,0.945,1.1,0.9
166,'C166',500.0,1,1,3,1,1.03757,-32.3883,1.05,0.945,1.1,0.9
167,'C167',230.0,1,1,3,1,1.019,-39.1122,1.05,0.945,1.1,0.9
168,'C168',230.0,1,1,3,1,1.00332,-35.4387,1.05,0.945,1.1,0.9
169,'C169',35.0,1,1,3,1,0.99424,-39.9235,1.05,0.945,1.1,0.9
170,'C170',230.0,1,1,3,1,0.99984,-35.4054,1.05,0.945,1.1,0.9
171,'C171',35.0,1,1,3,1,1.00683,-35.7308,1.05,0.945,1.1,0.9
172,'C172',115.0,1,1,3,1,1.00276,-37.4515,1.05,0.945,1.1,0.9
173,'C173',230.0,1,1,3,1,1.00266,-35.2698,1.05,0.945,1.1,0.9
174,'C174',13.0,1,1,3,1,1.00775,-39.9904,1.05,0.945,1.1,0.9
175,'C175',230.0,1,1,3,1,1.00237,-32.8842,1.05,0.945,1.1,0.9
176,'C176',35.0,1,1,3,1,0.98957,-37.8844,1.05,0.945,1.1,0.9
177,'C177',230.0,1,1,3,1,1.00414,-38.8995,1.05,0.945,1.1,0.9
178,'C178',35.0,1,1,3,1,1.0046,-39.9287,1.05,0.945,1.1,0.9
179,'C179',35.0,1,1,3,1,1.01382,-35.3303,1.05,0.945,1.1,0.9
180,'C180',35.0,1,1,3,1,0.99636,-36.2128,1.05,0.945,1.1,0.9
181,'C181',230.0,1,1,3,1,1.01609,-39.3212,1.05,0.945,1.1,0.9
182,'C182',115.0,1,1,3,1,0.99836,-36.4959,1.05,0.945,1.1,0.9
183,'C183',230.0,2,1,3,1,1.0206,-34.5305,1.05,0.945,1.1,0.9
184,'C184',500.0,1,1,3,1,1.03966,-27.7766,1.05,0.945,1.1,0.9
185,'C185',230.0,1,1,3,1,1.00123,-35.6025,1.05,0.945,1.1,0.9
186,'C186',35.0,1,1,3,1,0.99928,-35.5177,1.05,0.945,1.1,0.9
187,'C187',230.0,1,1,3,1,1.00625,-38.5209,1.05,0.945,1.1,0.9
188,'C188',115.0,1,1,3,1,0.99823,-37.3127,1.05,0.945,1.1,0.9
189,'C189',35.0,2,1,3,1,1.006,-31.5415,1.05,0.945,1.1,0.9
190,'C190',13.0,1,1,3,1,1.01364,-35.8334,1.05,0.945,1.1,0.9
191,'C191',13.0,1,1,3,1,1.00408,-36.307,1.05,0.945,1.1,0.9
192,'C192',13.0,1,1,3,1,1.01021,-36.2714,1.05,0.945,1.1,0.9
193,'C193',14.0,2,1,3,1,0.99749,-34.9163,1.05,0.945,1.1,0.9
194,'C194',13.0,2,1,3,1,1.0062,-33.3901,1.05,0.945,1.1,0.9
195,'C195',35.0,1,1,3,1,0.99215,-33.5689,1.05,0.945,1.1,0.9
196,'C196',13.0,1,1,3,1,1.00609,-40.596,1.05,0.945,1.1,0.9
197,'C197',35.0,1,1,3,1,1.01213,-36.0293,1.05,0.945,1.1,0.9
198,'C198',115.0,1,1,3,1,0.99815,-36.0703,1.05,0.945,1.1,0.9
199,'C199',115.0,1,1,3,1,1.00507,-36.9855,1.05,0.945,1.1,0.9
200,'C200',13.2,1,1,3,1,0.99333,-36.4068,1.05,0.945,1.1,0.9
...
0 / END OF BUS DATA BEGIN LOAD DATA
1,'1',1,1,1,6.767,-0.192,0.0,0.0,0.0,0.0,1,1,0
3,'1',1,1,1,0.146,0.412,0.0,0.0,0.0,0.0,1,1,0
4,'1',1,1,1,6.526,-0.284,0.0,0.0,0.0,0.0,1,1,0
6,'1',1,1,1,2.092,2.775,0.0,0.0,0.0,0.0,1,1,0
7,'1',1,1,1,4.989,0.341,0.0,0.0,0.0,0.0,1,1,0
8,'1',1,1,1,2.246,0.405,0.0,0.0,0.0,0.0,1,1,0
10,'1',1,1,1,1.558,1.029,0.0,0.0,0.0,0.0,1,1,0
11,'1',1,1,1,3.007,0.596,0.0,0.0,0.0,0.0,1,1,0
17,'1',1,1,1,10.162,-1.171,0.0,0.0,0.0,0.0,1,1,0
20,'1',1,1,1,5.326,0.767,0.0,0.0,0.0,0.0,1,1,0
21,'1',1,1,1,7.835,0.326,0.0,0.0,0.0,0.0,1,1,0
22,'1',1,1,1,3.329,0.369,0.0,0.0,0.0,0.0,1,1,0
23,'99',0,1,1,0.599,4.318,0.0,0.0,0.0,0.0,1,1,0
24,'1',1,1,1,0.922,0.731,0.0,0.0,0.0,0.0,1,1,0
25,'1',1,1,1,5.223,-1.306,0.0,0.0,0.0,0.0,1,1,0
25,'2',1,1,1,10.535,-0.724,0.0,0.0,0.0,0.0,1,1,0
27,'1',1,1,1,7.294,0.128,0.0,0.0,0.0,0.0,1,1,0
31,'1',1,1,2,-69.324,16.055,0.0,0.0,0.0,0.0,1,1,0
32,'1',1,1,2,89.318,41.869,0.0,0.0,0.0,0.0,1,1,0
34,'1',1,1,2,-116.13,-0.582,0.0,0.0,0.0,0.0,1,1,0
36,'1',1,1,2,79.683,-32.613,0.0,0.0,0.0,0.0,1,1,0
38,'1',1,1,2,33.433,4.244,0.0,0.0,0.0,0.0,1,1,0
39,'99',0,1,2,16.746,1.979,0.0,0.0,0.0,0.0,1,1,0
41,'99',1,1,2,318.453,-15.566,0.0,0.0,0.0,0.0,1,1,0
42,'1',1,1,2,-69.338,16.055,0.0,0.0,0.0,0.0,1,1,0
43,'1',1,1,2,43.792,12.123,0.0,0.0,0.0,0.0,1,1,0
43,'2',1,1,2,49.206,0.547,0.0,0.0,0.0,0.0,1,1,0
43,'99',0,1,2,4.504,-12.536,0.0,0.0,0.0,0.0,1,1,0
44,'1',1,1,2,21.091,5.557,0.0,0.0,0.0,0.0,1,1,0
45,'1',1,1,2,30.112,2.193,0.0,0.0,0.0,0.0,1,1,0
48,'1',1,1,2,-69.88,20.995,0.0,0.0,0.0,0.0,1,1,0
52,'1',1,1,2,-78.629,16.814,0.0,0.0,0.0,0.0,1,1,0
53,'1',1,1,2,79.493,-15.735,0.0,0.0,0.0,0.0,1,1,0
54,'1',1,1,2,110.65,-29.639,0.0,0.0,0.0,0.0,1,1,0
55,'1',1,1,2,-158.517,-5.089,0.0,0.0,0.0,0.0,1,1,0
57,'1',1,1,2,64.349,18.901,0.0,0.0,0.0,0.0,1,1,0
59,'1',1,1,2,49.644,12.47,0.0,0.0,0.0,0.0,1,1,0
60,'1',1,1,2,-35.942,20.143,0.0,0.0,0.0,0.0,1,1,0
61,'1',1,1,2,76.632,59.378,0.0,0.0,0.0,0.0,1,1,0
62,'1',1,1,2,22.569,3.918,0.0,0.0,0.0,0.0,1,1,0
69,'1',1,1,2,26.695,4.315,0.0,0.0,0.0,0.0,1,1,0
71,'1',1,1,2,-116.122,-0.979,0.0,0.0,0.0,0.0,1,1,0
74,'1',1,1,2,111.916,-25.551,0.0,0.0,0.0,0.0,1,1,0
76,'1',1,1,2,24.669,3.024,0.0,0.0,0.0,0.0,1,1,0
77,'1',1,1,2,17.558,-3.868,0.0,0.0,0.0,0.0,1,1,0
79,'1',1,1,2,17.06,1.938,0.0,0.0,0.0,0.0,1,1,0
81,'1',1,1,2,58.76,2.406,0.0,0.0,0.0,0.0,1,1,0
81,'2',1,1,2,91.505,6.736,0.0,0.0,0.0,0.0,1,1,0
82,'1',1,1,3,18.882,1.313,0.0,0.0,0.0,0.0,1,1,0
83,'1',1,1,3,1.756,-1.682,0.0,0.0,0.0,0.0,1,1,0
84,'1',1,1,3,13.395,0.043,0.0,0.0,0.0,0.0,1,1,0
85,'1',1,1,3,2.575,2.2,0.0,0.0,0.0,0.0,1,1,0
86,'1',1,1,3,37.391,30.335,0.0,0.0,0.0,0.0,1,1,0
87,'1',1,1,3,16.204,0.61,0.0,0.0,0.0,0.0,1,1,0
88,'1',1,1,3,30.938,1.718,0.0,0.0,0.0,0.0,1,1,0
90,'1',1,1,3,2.29,0.106,0.0,0.0,0.0,0.0,1,1,0
93,'1',1,1,3,7.974,-2.307,0.0,0.0,0.0,0.0,1,1,0
95,'1',1,1,3,19.27,1.597,0.0,0.0,0.0,0.0,1,1,0
99,'1',1,1,3,11.01,2.605,0.0,0.0,0.0,0.0,1,1,0
100,'1',1,1,3,11.727,-0.355,0.0,0.0,0.0,0.0,1,1,0
101,'1',1,1,3,1.163,-0.043,0.0,0.0,0.0,0.0,1,1,0
103,'1',1,1,3,6.452,1.774,0.0,0.0,0.0,0.0,1,1,0
104,'1',1,1,3,7.286,-2.711,0.0,0.0,0.0,0.0,1,1,0
105,'1',1,1,3,23.93,-1.547,0.0,0.0,0.0,0.0,1,1,0
106,'1',1,1,3,9.445,1.207,0.0,0.0,0.0,0.0,1,1,0
108,'1',1,1,3,19.796,3.634,0.0,0.0,0.0,0.0,1,1,0
109,'1',1,1,3,14.427,3.96,0.0,0.0,0.0,0.0,1,1,0
110,'99',1,1,3,31.787,15.647,0.0,0.0,0.0,0.0,1,1,0
112,'1',1,1,3,24.091,0.185,0.0,0.0,0.0,0.0,1,1,0
113,'1',1,1,3,-1.097,-0.497,0.0,0.0,0.0,0.0,1,1,0
114,'1',1,1,3,7.067,3.904,0.0,0.0,0.0,0.0,1,1,0
116,'1',1,1,3,7.703,-0.688,0.0,0.0,0.0,0.0,1,1,0
117,'1',1,1,3,1.887,3.946,0.0,0.0,0.0,0.0,1,1,0
120,'1',1,1,3,2.751,1.377,0.0,0.0,0.0,0.0,1,1,0
122,'1',1,1,3,33.396,27.645,0.0,0.0,0.0,0.0,1,1,0
123,'1',1,1,3,12.349,-1.739,0.0,0.0,0.0,0.0,1,1,0
126,'1',1,1,3,4.763,10.845,0.0,0.0,0.0,0.0,1,1,0
126,'2',1,1,3,7.755,10.845,0.0,0.0,0.0,0.0,1,1,0
127,'1',1,1,3,7.755,0.106,0.0,0.0,0.0,0.0,1,1,0
129,'1',1,1,3,4.975,2.761,0.0,0.0,0.0,0.0,1,1,0
130,'99',1,1,3,481.802,62.039,0.0,0.0,0.0,0.0,1,1,0
131,'1',1,1,3,40.58,5.259,0.0,0.0,0.0,0.0,1,1,0
133,'1',1,1,3,9.92,0.575,0.0,0.0,0.0,0.0,1,1,0
135,'1',1,1,3,7.477,-0.681,0.0,0.0,0.0,0.0,1,1,0
138,'1',1,1,3,6.474,-3.08,0.0,0.0,0.0,0.0,1,1,0
139,'1',1,1,3,13.578,-0.234,0.0,0.0,0.0,0.0,1,1,0
143,'1',1,1,3,9.686,6.686,0.0,0.0,0.0,0.0,1,1,0
144,'1',1,1,3,5.223,0.483,0.0,0.0,0.0,0.0,1,1,0
149,'1',1,1,3,8.479,1.405,0.0,0.0,0.0,0.0,1,1,0
153,'1',1,1,3,13.922,-2.725,0.0,0.0,0.0,0.0,1,1,0
154,'1',1,1,3,16.812,0.298,0.0,0.0,0.0,0.0,1,1,0
157,'1',1,1,3,3.263,-1.703,0.0,0.0,0.0,0.0,1,1,0
158,'1',1,1,3,10.71,1.192,0.0,0.0,0.0,0.0,1,1,0
159,'1',1,1,3,3.065,1.781,0.0,0.0,0.0,0.0,1,1,0
160,'1',1,1,3,8.83,1.356,0.0,0.0,0.0,0.0,1,1,0
161,'1',1,1,3,11.588,2.42,0.0,0.0,0.0,0.0,1,1,0
162,'1',1,1,3,6.877,0.852,0.0,0.0,0.0,0.0,1,1,0
163,'1',1,1,3,5.319,12.534,0.0,0.0,0.0,0.0,1,1,0
163,'2',1,1,3,0.834,11.328,0.0,0.0,0.0,0.0,1,1,0
163,'3',1,1,3,2.641,10.114,0.0,0.0,0.0,0.0,1,1,0
163,'4',1,1,3,10.725,10.519,0.0,0.0,0.0,0.0,1,1,0
169,'1',1,1,3,24.317,-0.703,0.0,0.0,0.0,0.0,1,1,0
170,'1',1,1,3,12.781,-5.16,0.0,0.0,0.0,0.0,1,1,0
171,'1',1,1,3,22.884,6.402,0.0,0.0,0.0,0.0,1,1,0
174,'1',1,1,3,11.464,1.916,0.0,0.0,0.0,0.0,1,1,0
176,'1',1,1,3,8.998,0.823,0.0,0.0,0.0,0.0,1,1,0
178,'1',1,1,3,7.126,4.542,0.0,0.0,0.0,0.0,1,1,0
179,'1',1,1,3,10.476,-0.298,0.0,0.0,0.0,0.0,1,1,0
180,'1',1,1,3,15.985,-1.427,0.0,0.0,0.0,0.0,1,1,0
183,'1',1,1,3,87.189,8.978,0.0,0.0,0.0,0.0,1,1,0
186,'1',1,1,3,11.288,1.1,0.0,0.0,0.0,0.0,1,1,0
189,'1',1,1,3,41.473,0.007,0.0,0.0,0.0,0.0,1,1,0
190,'1',1,1,3,4.397,-2.058,0.0,0.0,0.0,0.0,1,1,0
191,'1',1,1,3,6.233,-1.618,0.0,0.0,0.0,0.0,1,1,0
192,'1',1,1,3,3.738,0.759,0.0,0.0,0.0,0.0,1,1,0
195,'1',1,1,3,9.203,-1.079,0.0,0.0,0.0,0.0,1,1,0
196,'1',1,1,3,4.799,3.13,0.0,0.0,0.0,0.0,1,1,0
197,'1',1,1,3,19.116,1.043,0.0,0.0,0.0,0.0,1,1,0
200,'1',1,1,3,6.452,0.071,0.0,0.0,0.0,0.0,1,1,0
201,'1',1,1,3,17.631,4.578,0.0,0.0,0.0,0.0,1,1,0
202,'1',1,1,3,10.6,1.498,0.0,0.0,0.0,0.0,1,1,0
203,'1',1,1,3,1.156,0.61,0.0,0.0,0.0,0.0,1,1,0
205,'1',1,1,3,10.015,-4.833,0.0,0.0,0.0,0.0,1,1,0
206,'99',1,1,3,31.104,16.867,0.0,0.0,0.0,0.0,1,1,0
207,'1',1,1,3,9.503,2.378,0.0,0.0,0.0,0.0,1,1,0
209,'1',1,1,3,18.019,8.361,0.0,0.0,0.0,0.0,1,1,0
210,'1',1,1,3,5.692,-0.539,0.0,0.0,0.0,0.0,1,1,0
214,'1',1,1,3,3.775,1.498,0.0,0.0,0.0,0.0,1,1,0
216,'1',1,1,3,1.931,3.535,0.0,0.0,0.0,0.0,1,1,0
217,'1',1,1,3,15.026,-2.704,0.0,0.0,0.0,0.0,1,1,0
220,'1',1,1,3,6.782,-0.866,0.0,0.0,0.0,0.0,1,1,0
221,'1',1,1,3,7.916,3.946,0.0,0.0,0.0,0.0,1,1,0
222,'1',1,1,3,12.378,-0.185,0.0,0.0,0.0,0.0,1,1,0
224,'1',1,1,3,13.505,2.633,0.0,0.0,0.0,0.0,1,1,0
225,'1',1,1,3,7.199,3.804,0.0,0.0,0.0,0.0,1,1,0
230,'1',1,1,3,34.033,7.438,0.0,0.0,0.0,0.0,1,1,0
231,'1',1,1,3,18.853,1.313,0.0,0.0,0.0,0.0,1,1,0
232,'1',1,1,3,8.728,-0.305,0.0,0.0,0.0,0.0,1,1,0
234,'1',1,1,3,12.305,-3.712,0.0,0.0,0.0,0.0,1,1,0
235,'1',1,1,3,4.294,1.015,0.0,0.0,0.0,0.0,1,1,0
237,'99',1,1,3,5.568,1.714,0.0,0.0,0.0,0.0,1,1,0
238,'1',1,1,3,21.684,12.03,0.0,0.0,0.0,0.0,1,1,0
239,'1',1,1,3,6.072,1.292,0.0,0.0,0.0,0.0,1,1,0
240,'1',1,1,3,24.661,14.458,0.0,0.0,0.0,0.0,1,1,0
241,'1',1,1,3,1.375,0.22,0.0,0.0,0.0,0.0,1,1,0
243,'1',1,1,3,2.129,-0.355,0.0,0.0,0.0,0.0,1,1,0
245,'1',1,1,3,37.449,4.109,0.0,0.0,0.0,0.0,1,1,0
246,'1',1,1,3,28.787,0.83,0.0,0.0,0.0,0.0,1,1,0
247,'1',1,1,3,9.071,1.42,0.0,0.0,0.0,0.0,1,1,0
247,'2',1,1,3,9.071,1.42,0.0,0.0,0.0,0.0,1,1,0
248,'1',1,1,3,4.426,-2.541,0.0,0.0,0.0,0.0,1,1,0
249,'1',1,1,3,12.634,2.562,0.0,0.0,0.0,0.0,1,1,0
250,'1',1,1,3,9.423,-5.408,0.0,0.0,0.0,0.0,1,1,0
251,'1',1,1,3,9.576,7.31,0.0,0.0,0.0,0.0,1,1,0
253,'1',1,1,3,5.136,1.739,0.0,0.0,0.0,0.0,1,1,0
254,'99',0,1,3,27.983,12.253,0.0,0.0,0.0,0.0,1,1,0
256,'99',0,1,3,5.209,-7.792,0.0,0.0,0.0,0.0,1,1,0
257,'1',1,1,3,16.043,-3.066,0.0,0.0,0.0,0.0,1,1,0
258,'1',1,1,3,6.643,0.745,0.0,0.0,0.0,0.0,1,1,0
259,'1',1,1,3,4.397,0.277,0.0,0.0,0.0,0.0,1,1,0
260,'1',1,1,3,11.632,2.591,0.0,0.0,0.0,0.0,1,1,0
266,'1',1,1,3,5.194,-0.66,0.0,0.0,0.0,0.0,1,1,0
266,'2',1,1,3,5.194,-0.66,0.0,0.0,0.0,0.0,1,1,0
266,'99',1,1,3,44.807,18.941,0.0,0.0,0.0,0.0,1,1,0
267,'1',1,1,3,6.072,1.256,0.0,0.0,0.0,0.0,1,1,0
270,'1',1,1,3,6.431,-2.264,0.0,0.0,0.0,0.0,1,1,0
272,'99',1,1,3,70.645,17.293,0.0,0.0,0.0,0.0,1,1,0
273,'1',1,1,3,7.586,4.18,0.0,0.0,0.0,0.0,1,1,0
274,'1',1,1,3,12.305,-3.705,0.0,0.0,0.0,0.0,1,1,0
275,'1',1,1,3,20.396,0.568,0.0,0.0,0.0,0.0,1,1,0
276,'1',1,1,3,11.544,-2.725,0.0,0.0,0.0,0.0,1,1,0
278,'1',1,1,3,10.783,1.945,0.0,0.0,0.0,0.0,1,1,0
281,'1',1,1,3,11.61,3.79,0.0,0.0,0.0,0.0,1,1,0
281,'2',1,1,3,17.689,4.713,0.0,0.0,0.0,0.0,1,1,0
281,'3',1,1,3,8.574,3.336,0.0,0.0,0.0,0.0,1,1,0
281,'99',1,1,3,29.365,66.685,0.0,0.0,0.0,0.0,1,1,0
282,'1',1,1,3,0.936,0.724,0.0,0.0,0.0,0.0,1,1,0
283,'1',1,1,3,9.042,5.934,0.0,0.0,0.0,0.0,1,1,0
283,'2',1,1,3,9.042,5.934,0.0,0.0,0.0,0.0,1,1,0
286,'1',1,1,3,13.512,1.157,0.0,0.0,0.0,0.0,1,1,0
288,'1',1,1,3,20.791,2.406,0.0,0.0,0.0,0.0,1,1,0
289,'1',1,1,3,13.783,-0.916,0.0,0.0,0.0,0.0,1,1,0
290,'1',1,1,3,3.365,1.505,0.0,0.0,0.0,0.0,1,1,0
291,'1',1,1,3,0.98,4.493,0.0,0.0,0.0,0.0,1,1,0
292,'1',1,1,3,11.01,0.908,0.0,0.0,0.0,0.0,1,1,0
293,'1',1,1,3,22.715,-5.139,0.0,0.0,0.0,0.0,1,1,0
296,'1',1,1,3,19.826,0.128,0.0,0.0,0.0,0.0,1,1,0
297,'1',1,1,3,11.669,2.733,0.0,0.0,0.0,0.0,1,1,0
299,'1',1,1,3,3.651,1.938,0.0,0.0,0.0,0.0,1,1,0
301,'1',1,1,3,17.711,2.044,0.0,0.0,0.0,0.0,1,1,0
303,'1',1,1,3,22.949,-1.86,0.0,0.0,0.0,0.0,1,1,0
304,'1',1,1,3,6.635,2.243,0.0,0.0,0.0,0.0,1,1,0
304,'2',1,1,3,4.741,2.009,0.0,0.0,0.0,0.0,1,1,0
305,'1',1,1,3,6.65,-0.987,0.0,0.0,0.0,0.0,1,1,0
308,'1',1,1,3,1.441,1.483,0.0,0.0,0.0,0.0,1,1,0
311,'1',1,1,3,6.211,-2.307,0.0,0.0,0.0,0.0,1,1,0
312,'1',1,1,3,22.949,3.08,0.0,0.0,0.0,0.0,1,1,0
313,'99',1,1,3,8.409,7.165,0.0,0.0,0.0,0.0,1,1,0
315,'99',1,1,3,7.025,36.579,0.0,0.0,0.0,0.0,1,1,0
317,'1',1,1,3,11.5,-5.451,0.0,0.0,0.0,0.0,1,1,0
...
0 / END OF LOAD DATA BEGIN FIXED SHUNT DATA
23,'99',1,0.0,6.08
39,'99',1,0.0,2.673
43,'99',1,0.0,-17.596
50,'99',1,0.0,-109.984
69,'99',1,0.0,-47.238
73,'99',1,0.0,17.995
78,'99',1,0.0,12.364
90,'99',1,0.0,-4.777
129,'99',1,0.0,-8.836
146,'99',1,0.0,-76.414
254,'99',1,0.0,15.656
256,'99',1,0.0,-10.593
328,'99',1,0.0,-47.352
374,'99',1,0.0,24.849
406,'99',1,0.0,14.101
408,'99',1,0.0,-15.638
447,'99',1,0.0,-61.795
469,'99',1,0.0,-47.638
495,'99',1,0.0,136.479
514,'99',1,0.0,34.219
558,'99',1,0.0,-1.04
570,'99',1,0.0,-22.098
651,'99',1,0.0,-19.091
724,'99',1,0.0,12.799
748,'99',1,0.0,-4.196
764,'99',1,0.0,-8.21
819,'99',1,0.0,-9.372
834,'99',1,0.0,-0.079
837,'99',1,0.0,-258.636
849,'99',1,0.0,4.582
858,'99',1,0.0,-40.719
862,'99',1,0.0,9.034
863,'99',1,0.0,-46.487
880,'99',1,0.0,82.823
886,'99',1,0.0,11.758
888,'99',1,0.0,17.822
910,'99',1,0.0,43.27
924,'99',1,0.0,-9.42
947,'99',1,0.0,-33.746
951,'99',1,0.0,-30.599
955,'99',1,0.0,-29.38
965,'99',1,0.0,-18.858
968,'99',1,0.0,-15.812
971,'99',1,0.0,-20.881
973,'99',1,0.0,-15.59
982,'99',1,0.0,84.424
991,'99',1,0.0,1.414
1007,'99',1,0.0,4.408
1020,'99',1,0.0,-42.239
1027,'99',1,0.0,-7.724
1035,'99',1,0.0,-1.864
1067,'99',1,0.0,19.4
1104,'99',1,0.0,-12.27
1151,'99',1,0.0,-1.012
1158,'99',1,0.0,-25.146
1159,'99',1,0.0,-13.283
1176,'99',1,0.0,-17.019
1180,'99',1,0.0,16.454
1208,'99',1,0.0,8.606
1237,'99',1,0.0,1.103
1266,'99',1,0.0,-58.49
1279,'99',1,0.0,-45.303
1308,'99',1,0.0,-14.144
1333,'99',1,0.0,-15.4
1334,'99',1,0.0,38.159
1383,'99',1,0.0,-10.047
1414,'99',1,0.0,-10.98
1446,'99',1,0.0,-12.405
1452,'99',1,0.0,12.917
1466,'99',1,0.0,-11.04
1496,'99',1,0.0,55.878
1529,'99',1,0.0,-2.296
1533,'99',1,0.0,10.264
1551,'99',1,0.0,-1.7
1559,'99',1,0.0,-0.664
1574,'99',1,0.0,-17.104
1585,'99',1,0.0,1.862
1587,'99',1,0.0,0.392
1605,'99',1,0.0,-46.364
1613,'99',1,0.0,-32.545
1617,'99',1,0.0,8.006
1628,'99',1,0.0,51.574
1642,'99',1,0.0,-14.601
1652,'99',1,0.0,-3.926
1708,'99',1,0.0,10.895
1749,'99',1,0.0,-40.068
1753,'99',1,0.0,46.427
1780,'99',1,0.0,3.356
1786,'99',1,0.0,-14.303
1798,'99',1,0.0,44.417
1800,'99',1,0.0,63.612
1803,'99',1,0.0,0.069
1805,'99',1,0.0,-9.353
1810,'99',1,0.0,49.787
1811,'99',1,0.0,3.255
1829,'99',1,0.0,-2.944
1856,'99',1,0.0,55.037
1888,'99',1,0.0,-10.448
1894,'99',1,0.0,-21.574
1913,'99',1,0.0,-12.012
1920,'99',1,0.0,2.336
1923,'99',1,0.0,-8.593
1944,'99',1,0.0,-18.084
1955,'99',1,0.0,-0.062
1960,'99',1,0.0,19.782
1973,'99',1,0.0,27.907
1976,'99',1,0.0,-10.239
1978,'99',1,0.0,-42.917
1988,'99',1,0.0,-119.438
1994,'99',1,0.0,54.768
2009,'99',1,0.0,20.008
2010,'99',1,0.0,-14.912
2011,'99',1,0.0,5.601
2026,'99',1,0.0,-20.459
2036,'99',1,0.0,-9.687
2038,'99',1,0.0,-1.836
2046,'99',1,0.0,10.593
2053,'99',1,0.0,17.403
2080,'99',1,0.0,-25.378
2082,'99',1,0.0,-42.508
2085,'99',1,0.0,59.843
2086,'99',1,0.0,-15.77
2087,'99',1,0.0,3.175
2090,'99',1,0.0,19.466
2092,'99',1,0.0,-104.782
2099,'99',1,0.0,-3.887
2103,'99',1,0.0,13.015
2104,'99',1,0.0,-3.064
2111,'99',1,0.0,10.469
2144,'99',1,0.0,-6.024
2171,'99',1,0.0,-23.897
2252,'99',1,0.0,-26.82
2267,'99',1,0.0,-10.774
2270,'99',1,0.0,11.387
2360,'99',1,0.0,25.558
2401,'99',1,0.0,15.67
2430,'99',1,0.0,33.77
2462,'99',1,0.0,92.903
2505,'99',1,0.0,-6.255
2516,'99',1,0.0,10.533
2589,'99',1,0.0,2.192
2682,'99',1,0.0,-2.595
2687,'99',1,0.0,9.039
2705,'99',1,0.0,0.646
2710,'99',1,0.0,9.969
2742,'99',1,0.0,-116.24
2747,'99',1,0.0,50.026
2749,'99',1,0.0,6.796
2759,'99',1,0.0,1.712
2856,'99',1,0.0,9.837
2943,'99',1,0.0,30.833
2964,'99',1,0.0,-66.314
2965,'99',1,0.0,-71.035
2975,'99',1,0.0,4.025
2981,'99',1,0.0,26.552
2983,'99',1,0.0,89.412
2984,'99',1,0.0,-1.958
2988,'99',1,0.0,-0.704
2989,'99',1,0.0,-14.318
3060,'99',1,0.0,-300.88
3062,'99',1,0.0,-36.507
3254,'99',1,0.0,-0.081
3381,'99',1,0.0,-34.393
3444,'99',1,0.0,-14.983
3445,'99',1,0.0,12.724
3446,'99',1,0.0,-11.374
3447,'99',1,0.0,4.64
3449,'99',1,0.0,15.991
3470,'99',1,0.0,2.129
3473,'99',1,0.0,39.294
3497,'99',1,0.0,8.082
3525,'99',1,0.0,-3.461
3545,'99',1,0.0,10.53
3553,'99',1,0.0,0.625
3554,'99',1,0.0,15.146
3556,'99',1,0.0,2.81
3576,'99',1,0.0,-10.698
3577,'99',1,0.0,-8.903
3661,'99',1,0.0,38.868
3702,'99',1,0.0,-2.662
3731,'99',1,0.0,-1.183
3810,'99',1,0.0,-79.932
3884,'99',1,0.0,38.876
3885,'99',1,0.0,45.421
3935,'99',1,0.0,30.689
3937,'99',1,0.0,94.332
3945,'99',1,0.0,20.992
4009,'99',1,0.0,33.785
4066,'99',1,0.0,53.275
4080,'99',1,0.0,60.581
4085,'99',1,0.0,-6.25
4095,'99',1,0.0,10.501
4143,'99',1,0.0,6.373
4170,'99',1,0.0,23.561
4222,'99',1,0.0,38.278
4229,'99',1,0.0,50.689
4248,'99',1,0.0,162.478
4254,'99',1,0.0,43.385
4266,'99',1,0.0,103.245
4301,'99',1,0.0,50.957
...
0 / END OF FIXED SHUNT DATA BEGIN GENERATOR DATA
2,'1',0.0,0.0,21.136,-21.136,0.9622,0,71.2,0.0,0.181,0.0,0.0,1.0,0,100.0,67.941,42.75,1,1.0,0,1.0,0,1.0,0,1.0,0,1.0
5,'1',0.0,0.0,15.15,-9.9,0.985,0,30.11,0.0,0.2,0.0,0.0,1.0,0,100.0,154.412,25.795,1,1.0,0,1.0,0,1.0,0,1.0,0,1.0
6,'99',23.694,-4.469,550.0,-550.0,1.0,0,100.0,0.0,1.0,0.0,0.0,1.0,1,100.0,1600.0,14.877,1,1.0,0,1.0,0,1.0,0,1.0,0,1.0
9,'99',21.568,-1.582,550.0,-550.0,1.0,0,100.0,0.0,1.0,0.0,0.0,1.0,1,100.0,1600.0,13.542,1,1.0,0,1.0,0,1.0,0,1.0,0,1.0
16,'99',2.2,-15.168,550.0,-550.0,1.0,0,100.0,0.0,1.0,0.0,0.0,1.0,1,100.0,1600.0,2.0,1,1.0,0,1.0,0,1.0,0,1.0,0,1.0
23,'1',2.2,0.0,7.686,-2.025,0.985,0,100.0,0.0,1.0,0.0,0.0,1.0,0,100.0,24.706,2.0,1,1.0,0,1.0,0,1.0,0,1.0,0,1.0
26,'99',3.595,1.568,550.0,-550.0,1.0,0,100.0,0.0,1.0,0.0,0.0,1.0,1,100.0,1600.0,2.257,1,1.0,0,1.0,0,1.0,0,1.0,0,1.0
43,'1',2.2,0.0,9.607,-9.607,1.0046,0,100.0,0.0,1.0,0.0,0.0,1.0,0,100.0,30.882,2.0,1,1.0,0,1.0,0,1.0,0,1.0,0,1.0
46,'93',2.2,-264.742,600.0,-600.0,0.992,0,2300.0,0.0,1.0,0.0,0.0,1.0,1,100.0,40.0,2.0,1,1.0,0,1.0,0,1.0,0,1.0,0,1.0
48,'1',2.2,-7.128,216.361,-155.86,1.006,0,100.0,0.0,1.0,0.0,0.0,1.0,1,100.0,40.0,2.0,1,1.0,0,1.0,0,1.0,0,1.0,0,1.0
50,'99',17.0,-33.333,33.333,-33.333,0.99264,0,100.0,0.0,1.0,0.0,0.0,1.0,1,100.0,357.409,2.0,1,1.0,0,1.0,0,1.0,0,1.0,0,1.0
52,'1',0.0,0.0,139.885,-115.13,1.006,0,100.0,0.0,1.0,0.0,0.0,1.0,0,100.0,449.647,22.482,1,1.0,0,1.0,0,1.0,0,1.0,0,1.0
54,'99',103.206,-10.998,550.0,-550.0,1.0361,0,100.0,0.0,1.0,0.0,0.0,1.0,1,100.0,1600.0,58.52,1,1.0,0,1.0,0,1.0,0,1.0,0,1.0
59,'98',17.0,38.76,500.0,-500.0,0.985,0,1600.0,0.0,1.0,0.0,0.0,1.0,1,100.0,1882.353,2.0,1,1.0,0,1.0,0,1.0,0,1.0,0,1.0
69,'99',2.2,-26.676,26.676,-26.676,0.99253,0,100.0,0.0,1.0,0.0,0.0,1.0,1,100.0,85.748,2.0,1,1.0,0,1.0,0,1.0,0,1.0,0,1.0
70,'98',2.2,-36.6,36.6,-36.6,0.985,0,100.0,0.0,1.0,0.0,0.0,1.0,1,100.0,40.0,2.0,1,1.0,0,1.0,0,1.0,0,1.0,0,1.0
73,'99',2.2,-33.333,33.333,-33.333,0.99426,0,100.0,0.0,1.0,0.0,0.0,1.0,1,100.0,215.302,2.0,1,1.0,0,1.0,0,1.0,0,1.0,0,1.0
78,'99',17.0,-33.333,33.333,-33.333,1.00027,0,100.0,0.0,1.0,0.0,0.0,1.0,1,100.0,150.48,2.0,1,1.0,0,1.0,0,1.0,0,1.0,0,1.0
89,'1',128.25,-27.534,134.667,-134.667,1.0062,0,804.0,0.0,0.186,0.0,0.0,1.0,1,100.0,689.706,64.125,1,1.0,0,1.0,0,1.0,0,1.0,0,1.0
90,'99',2.2,-13.507,13.507,-13.507,0.99164,0,100.0,0.0,1.0,0.0,0.0,1.0,1,100.0,43.417,2.0,1,1.0,0,1.0,0,1.0,0,1.0,0,1.0
102,'1',0.0,0.0,61.104,-61.104,0.9582,0,200.54,0.0,0.195,0.0,0.0,1.0,0,100.0,196.412,85.5,1,1.0,0,1.0,0,1.0,0,1.0,0,1.0
122,'1',0.0,0.0,291.77,-195.238,0.985,0,1200.0,0.0,0.344,0.0,0.0,1.0,0,100.0,1464.327,897.75,1,1.0,0,1.0,0,1.0,0,1.0,0,1.0
128,'1',0.0,0.0,31.567,-31.567,1.0088,0,104.0,0.0,0.186,0.0,0.0,1.0,0,100.0,101.471,71.25,1,1.0,0,1.0,0,1.0,0,1.0,0,1.0
129,'99',2.2,-9.775,9.775,-9.775,0.985,0,100.0,0.0,1.0,0.0,0.0,1.0,1,100.0,31.422,2.0,1,1.0,0,1.0,0,1.0,0,1.0,0,1.0
137,'1',0.0,0.0,22.5,-22.5,1.0156,0,67.5,0.0,0.165,0.0,0.0,1.0,0,100.0,327.059,16.353,1,1.0,0,1.0,0,1.0,0,1.0,0,1.0
137,'2',0.0,0.0,22.194,-22.194,1.0156,0,67.5,0.0,0.165,0.0,0.0,1.0,0,100.0,71.341,14.25,1,1.0,0,1.0,0,1.0,0,1.0,0,1.0
140,'1',0.0,0.0,286.303,-99.0,1.013,0,848.0,0.0,0.324,0.0,0.0,1.0,0,100.0,920.294,9.5,1,1.0,0,1.0,0,1.0,0,1.0,0,1.0
145,'1',0.0,0.0,56.492,-56.492,1.0174,0,234.0,0.0,0.228,0.0,0.0,1.0,0,100.0,181.588,138.7,1,1.0,0,1.0,0,1.0,0,1.0,0,1.0
146,'99',2.2,-33.333,33.333,-33.333,1.02,0,100.0,0.0,1.0,0.0,0.0,1.0,1,100.0,40.0,2.0,1,1.0,0,1.0,0,1.0,0,1.0,0,1.0
163,'1',41.112,-15.047,15.047,-15.047,0.985,0,100.0,0.0,1.0,0.0,0.0,1.0,1,100.0,56.54,2.418,1,1.0,0,1.0,0,1.0,0,1.0,0,1.0
163,'2',0.0,0.0,33.333,-33.333,0.985,0,100.0,0.0,1.0,0.0,0.0,1.0,0,100.0,301.177,15.059,1,1.0,0,1.0,0,1.0,0,1.0,0,1.0
183,'99',138.136,38.515,550.0,-550.0,1.0206,0,100.0,0.0,1.0,0.0,0.0,1.0,1,100.0,1600.0,80.0,1,1.0,0,1.0,0,1.0,0,1.0,0,1.0
189,'1',225.0,15.436,104.31,-104.31,1.006,0,100.0,0.0,1.0,0.0,0.0,1.0,1,100.0,335.294,3.548,1,1.0,0,1.0,0,1.0,0,1.0,0,1.0
193,'1',0.0,0.0,31.567,-31.567,1.0088,0,104.0,0.0,0.186,0.0,0.0,1.0,0,100.0,101.471,71.25,1,1.0,0,1.0,0,1.0,0,1.0,0,1.0
194,'1',128.25,-27.373,134.667,-134.667,1.0062,0,704.0,0.0,0.186,0.0,0.0,1.0,1,100.0,689.706,64.125,1,1.0,0,1.0,0,1.0,0,1.0,0,1.0
218,'1',0.0,0.0,39.583,-39.583,1.0097,0,160.0,0.0,0.16,0.01,0.2,1.0,0,100.0,127.235,96.9,1,1.0,0,1.0,0,1.0,0,1.0,0,1.0
218,'2',0.0,0.0,39.583,-39.583,1.0097,0,160.0,0.0,0.16,0.01,0.2,1.0,0,100.0,127.235,96.9,1,1.0,0,1.0,0,1.0,0,1.0,0,1.0
218,'3',0.0,0.0,39.583,-39.583,1.0097,0,160.0,0.0,0.16,0.01,0.2,1.0,0,100.0,127.235,96.9,1,1.0,0,1.0,0,1.0,0,1.0,0,1.0
219,'93',2.2,-583.028,600.0,-600.0,0.992,0,2000.0,0.0,1.0,0.0,0.0,1.0,1,100.0,40.0,2.0,1,1.0,0,1.0,0,1.0,0,1.0,0,1.0
219,'94',2.2,-583.028,600.0,-600.0,0.992,0,2000.0,0.0,1.0,0.0,0.0,1.0,1,100.0,40.0,2.0,1,1.0,0,1.0,0,1.0,0,1.0,0,1.0
223,'1',0.0,0.0,197.613,-137.41,0.992,0,1055.0,0.0,0.314,0.0,0.0,1.0,0,100.0,635.206,31.76,1,1.0,0,1.0,0,1.0,0,1.0,0,1.0
227,'1',128.25,-27.534,134.667,-134.667,1.0062,0,704.0,0.0,0.186,0.0,0.0,1.0,1,100.0,689.706,64.125,1,1.0,0,1.0,0,1.0,0,1.0,0,1.0
238,'1',1243.3,-195.413,437.88,-195.413,0.985,0,1200.0,0.0,0.344,0.0,0.0,1.0,1,100.0,1462.706,898.7,1,1.0,0,1.0,0,1.0,0,1.0,0,1.0
247,'1',0.0,0.0,17.31,-10.61,1.006,0,25.0,0.0,0.17,0.0,0.0,1.0,0,100.0,302.353,15.118,1,1.0,0,1.0,0,1.0,0,1.0,0,1.0
247,'2',0.0,0.0,17.31,-10.61,1.006,0,25.0,0.0,0.17,0.0,0.0,1.0,0,100.0,315.294,15.765,1,1.0,0,1.0,0,1.0,0,1.0,0,1.0
247,'3',0.0,0.0,17.31,-10.61,1.006,0,25.0,0.0,0.17,0.0,0.0,1.0,0,100.0,343.529,8.24,1,1.0,0,1.0,0,1.0,0,1.0,0,1.0
263,'1',0.0,0.0,62.97,-67.458,0.985,0,198.9,0.0,0.1686,0.0,0.0,1.0,0,100.0,216.838,9.5,1,1.0,0,1.0,0,1.0,0,1.0,0,1.0
267,'1',0.0,0.0,33.333,-33.333,0.9827,0,100.0,0.0,1.0,0.0,0.0,1.0,0,100.0,338.823,16.941,1,1.0,0,1.0,0,1.0,0,1.0,0,1.0
282,'1',2.2,-0.56,166.4,-166.4,1.01,0,800.0,0.0,0.239,0.0,0.0,1.0,1,100.0,810.588,2.0,1,1.0,0,1.0,0,1.0,0,1.0,0,1.0
282,'2',29.844,-7.6,200.59,-200.59,1.01,0,800.0,0.0,0.15,0.0,0.0,1.0,1,100.0,743.035,14.922,1,1.0,0,1.0,0,1.0,0,1.0,0,1.0
289,'1',2.2,0.0,3.883,-3.883,0.9843,0,100.0,0.0,1.0,0.0,0.0,1.0,0,100.0,12.482,2.0,1,1.0,0,1.0,0,1.0,0,1.0,0,1.0
298,'1',0.0,0.0,59.951,-59.951,1.0174,0,226.0,0.0,0.189,0.0,0.0,1.0,0,100.0,192.706,147.25,1,1.0,0,1.0,0,1.0,0,1.0,0,1.0
328,'99',2.2,-15.415,15.415,-15.415,0.99191,0,100.0,0.0,1.0,0.0,0.0,1.0,1,100.0,40.0,2.0,1,1.0,0,1.0,0,1.0,0,1.0,0,1.0
336,'1',50.0,-57.645,57.645,-57.645,0.985,0,198.9,0.0,0.1686,0.0,0.0,1.0,1,100.0,185.294,9.5,1,1.0,0,1.0,0,1.0,0,1.0,0,1.0
337,'1',0.0,0.0,16.909,-16.909,1.0087,0,57.87,0.0,0.148,0.0047,0.0939,1.0,0,100.0,54.353,11.4,1,1.0,0,1.0,0,1.0,0,1.0,0,1.0
339,'1',286.0,-73.32,71.77,-73.32,0.99599,0,88.24,0.0,0.125,0.0064,0.1285,1.0,1,100.0,336.471,16.824,1,1.0,0,1.0,0,1.0,0,1.0,0,1.0
339,'2',0.0,0.0,71.77,-73.32,0.99599,0,131.6,0.0,0.169,0.0,0.0,1.0,0,100.0,327.059,16.353,1,1.0,0,1.0,0,1.0,0,1.0,0,1.0
339,'3',0.0,0.0,42.287,-42.287,0.99599,0,131.6,0.0,0.169,0.0,0.0,1.0,0,100.0,135.926,60.48,1,1.0,0,1.0,0,1.0,0,1.0,0,1.0
340,'1',0.0,0.0,33.333,-33.333,0.9962,0,100.0,0.0,1.0,0.0,0.0,1.0,0,100.0,340.0,17.0,1,1.0,0,1.0,0,1.0,0,1.0,0,1.0
340,'2',0.0,0.0,33.333,-33.333,0.9962,0,100.0,0.0,1.0,0.0,0.0,1.0,0,100.0,348.235,17.412,1,1.0,0,1.0,0,1.0,0,1.0,0,1.0
340,'3',0.0,0.0,33.333,-33.333,0.9962,0,100.0,0.0,1.0,0.0,0.0,1.0,0,100.0,302.353,15.118,1,1.0,0,1.0,0,1.0,0,1.0,0,1.0
346,'98',2.2,-36.6,36.6,-36.6,0.999,0,100.0,0.0,1.0,0.0,0.0,1.0,1,100.0,40.0,2.0,1,1.0,0,1.0,0,1.0,0,1.0,0,1.0
351,'1',0.0,0.0,92.232,-92.232,0.985,0,100.0,0.0,1.0,0.0,0.0,1.0,0,100.0,296.471,14.824,1,1.0,0,1.0,0,1.0,0,1.0,0,1.0
370,'1',0.0,0.0,66.059,-44.625,0.985,0,181.5,0.0,0.253,0.0,0.0,1.0,0,100.0,212.339,10.0,1,1.0,0,1.0,0,1.0,0,1.0,0,1.0
371,'1',0.0,0.0,141.74,-90.67,1.02,0,384.0,0.0,0.205,0.0,0.0,1.0,0,100.0,518.486,285.0,1,1.0,0,1.0,0,1.0,0,1.0,0,1.0
387,'1',0.0,0.0,6.149,-6.149,0.98962,0,100.0,0.0,1.0,0.0,0.0,1.0,0,100.0,19.765,4.75,1,1.0,0,1.0,0,1.0,0,1.0,0,1.0
388,'1',215.78,-41.233,78.975,-44.55,0.985,0,82.78,0.0,0.246,0.0,0.0,1.0,1,100.0,296.667,50.333,1,1.0,0,1.0,0,1.0,0,1.0,0,1.0
416,'1',0.0,0.0,14.603,-14.603,1.0357,0,54.4,0.0,0.271,0.0,0.0,1.0,0,100.0,46.941,2.347,1,1.0,0,1.0,0,1.0,0,1.0,0,1.0
419,'99',474.212,-27.203,550.0,-550.0,1.0443,0,100.0,0.0,1.0,0.0,0.0,1.0,1,100.0,1600.0,80.0,1,1.0,0,1.0,0,1.0,0,1.0,0,1.0
424,'1',0.0,0.0,78.397,-42.075,0.985,0,82.78,0.0,0.246,0.0,0.0,1.0,0,100.0,252.0,50.108,1,1.0,0,1.0,0,1.0,0,1.0,0,1.0
426,'1',0.0,0.0,33.333,-33.333,1.001,0,100.0,0.0,1.0,0.0,0.0,1.0,0,100.0,304.706,15.235,1,1.0,0,1.0,0,1.0,0,1.0,0,1.0
432,'1',0.0,0.0,63.41,-63.41,1.0087,0,203.25,0.0,0.226,0.0094,0.1876,1.0,0,100.0,203.824,50.54,1,1.0,0,1.0,0,1.0,0,1.0,0,1.0
444,'1',192.0,-92.232,92.232,-92.232,0.99375,0,100.0,0.0,1.0,0.0,0.0,1.0,1,100.0,296.471,10.8,1,1.0,0,1.0,0,1.0,0,1.0,0,1.0
447,'99',2.2,-13.21,13.21,-13.21,0.985,0,100.0,0.0,1.0,0.0,0.0,1.0,1,100.0,40.0,2.0,1,1.0,0,1.0,0,1.0,0,1.0,0,1.0
466,'99',12.068,-55.156,550.0,-550.0,1.02,0,100.0,0.0,1.0,0.0,0.0,1.0,1,100.0,1600.0,7.577,1,1.0,0,1.0,0,1.0,0,1.0,0,1.0
483,'1',0.0,0.0,63.025,-63.025,0.9582,0,218.0,0.0,0.281,0.0,0.0,1.0,0,100.0,202.588,85.5,1,1.0,0,1.0,0,1.0,0,1.0,0,1.0
487,'1',0.0,0.0,37.471,-37.471,0.9993,0,132.35,0.0,0.157,0.0,0.0,1.0,0,100.0,120.447,33.25,1,1.0,0,1.0,0,1.0,0,1.0,0,1.0
488,'1',0.0,0.0,33.333,-33.333,1.0154,0,100.0,0.0,1.0,0.0,0.0,1.0,0,100.0,329.412,16.471,1,1.0,0,1.0,0,1.0,0,1.0,0,1.0
489,'99',2.2,16.468,19.461,-19.461,1.02,0,100.0,0.0,1.0,0.0,0.0,1.0,1,100.0,40.0,2.0,1,1.0,0,1.0,0,1.0,0,1.0,0,1.0
491,'1',0.0,0.0,33.333,-33.333,1.0133,0,100.0,0.0,1.0,0.0,0.0,1.0,0,100.0,303.529,15.176,1,1.0,0,1.0,0,1.0,0,1.0,0,1.0
491,'2',0.0,0.0,33.333,-33.333,1.0133,0,100.0,0.0,1.0,0.0,0.0,1.0,0,100.0,317.647,15.882,1,1.0,0,1.0,0,1.0,0,1.0,0,1.0
499,'1',0.0,0.0,105.513,-105.513,0.985,0,515.0,0.0,0.224,0.0,0.0,1.0,0,100.0,339.162,180.5,1,1.0,0,1.0,0,1.0,0,1.0,0,1.0
512,'99',293.427,-79.92,550.0,-550.0,1.02,0,100.0,0.0,1.0,0.0,0.0,1.0,1,100.0,1600.0,80.0,1,1.0,0,1.0,0,1.0,0,1.0,0,1.0
514,'99',2.2,-33.333,33.333,-33.333,1.00405,0,100.0,0.0,1.0,0.0,0.0,1.0,1,100.0,40.0,2.0,1,1.0,0,1.0,0,1.0,0,1.0,0,1.0
515,'1',128.25,-27.373,134.667,-134.667,1.0062,0,804.0,0.0,0.186,0.0,0.0,1.0,1,100.0,689.706,64.125,1,1.0,0,1.0,0,1.0,0,1.0,0,1.0
521,'1',0.0,0.0,96.624,-96.624,0.992,0,100.0,0.0,1.0,0.0,0.0,1.0,0,100.0,310.588,4.15,1,1.0,0,1.0,0,1.0,0,1.0,0,1.0
524,'1',0.0,0.0,67.22,-44.587,0.985,0,181.5,0.0,0.253,0.0,0.0,1.0,0,100.0,216.073,96.9,1,1.0,0,1.0,0,1.0,0,1.0,0,1.0
529,'1',0.0,0.0,62.641,-62.641,0.9993,0,200.54,0.0,0.195,0.0,0.0,1.0,0,100.0,201.353,85.5,1,1.0,0,1.0,0,1.0,0,1.0,0,1.0
546,'1',0.0,0.0,31.567,-31.567,1.0088,0,104.0,0.0,0.186,0.0,0.0,1.0,0,100.0,101.471,71.25,1,1.0,0,1.0,0,1.0,0,1.0,0,1.0
558,'99',2.2,-33.333,33.333,-33.333,0.985,0,100.0,0.0,1.0,0.0,0.0,1.0,1,100.0,40.0,2.0,1,1.0,0,1.0,0,1.0,0,1.0,0,1.0
559,'1',2.2,-137.523,217.129,-217.129,0.992,0,1055.0,0.0,0.3,0.0,0.0,1.0,1,100.0,40.0,2.0,1,1.0,0,1.0,0,1.0,0,1.0,0,1.0
562,'1',0.0,0.0,22.5,-22.5,1.0104,0,67.5,0.0,0.247,0.0057,0.1137,1.0,0,100.0,352.941,17.647,1,1.0,0,1.0,0,1.0,0,1.0,0,1.0
562,'2',0.0,0.0,17.103,-17.103,1.0104,0,67.5,0.0,0.247,0.0057,0.1137,1.0,0,100.0,54.976,26.13,1,1.0,0,1.0,0,1.0,0,1.0,0,1.0
570,'99',2.2,-27.586,27.586,-27.586,0.99563,0,100.0,0.0,1.0,0.0,0.0,1.0,1,100.0,40.0,2.0,1,1.0,0,1.0,0,1.0,0,1.0,0,1.0
571,'1',0.0,0.0,98.454,-98.454,0.985,0,100.0,0.0,1.0,0.0,0.0,1.0,0,100.0,316.471,4.917,1,1.0,0,1.0,0,1.0,0,1.0,0,1.0
575,'1',120.0,-28.362,70.7,-64.35,1.01069,0,100.0,0.0,1.0,0.0,0.0,1.0,1,100.0,307.059,15.353,1,1.0,0,1.0,0,1.0,0,1.0,0,1.0
588,'1',0.0,0.0,56.492,-56.492,1.0174,0,234.0,0.0,0.228,0.0,0.0,1.0,0,100.0,181.588,138.7,1,1.0,0,1.0,0,1.0,0,1.0,0,1.0
610,'1',0.0,0.0,18.007,-18.007,0.9844,0,100.0,0.0,1.0,0.0,0.0,1.0,0,100.0,57.882,34.2,1,1.0,0,1.0,0,1.0,0,1.0,0,1.0
617,'1',0.0,0.0,59.951,-59.951,1.0174,0,226.0,0.0,0.189,0.0,0.0,1.0,0,100.0,192.706,147.25,1,1.0,0,1.0,0,1.0,0,1.0,0,1.0
622,'1',0.0,0.0,58.1,-98.088,0.99382,0,120.0,0.0,0.157,0.0072,0.1444,1.0,0,100.0,315.294,15.765,1,1.0,0,1.0,0,1.0,0,1.0,0,1.0
622,'2',292.0,-106.872,58.1,-106.872,0.99382,0,120.0,0.0,0.157,0.0072,0.1444,1.0,1,100.0,343.529,17.176,1,1.0,0,1.0,0,1.0,0,1.0,0,1.0
622,'3',0.0,0.0,58.1,-93.696,0.99382,0,147.0,0.0,0.151,0.0105,0.21,1.0,0,100.0,301.177,5.4,1,1.0,0,1.0,0,1.0,0,1.0,0,1.0
622,'4',268.0,-98.088,58.1,-98.088,0.99382,0,120.0,0.0,0.157,0.0072,0.1444,1.0,1,100.0,315.294,15.765,1,1.0,0,1.0,0,1.0,0,1.0,0,1.0
622,'5',69.0,-40.37,58.1,-98.454,0.99382,0,120.0,0.0,0.157,0.0072,0.1444,1.0,1,100.0,316.471,10.52,1,1.0,0,1.0,0,1.0,0,1.0,0,1.0
622,'6',0.0,0.0,54.232,-54.232,0.99382,0,147.0,0.0,0.151,0.0105,0.21,1.0,0,100.0,174.324,79.2,1,1.0,0,1.0,0,1.0,0,1.0,0,1.0
635,'1',0.0,0.0,108.702,-49.11,0.99249,0,119.2,0.0,0.2,0.0058,0.1147,1.0,0,100.0,349.412,3.352,1,1.0,0,1.0,0,1.0,0,1.0,0,1.0
635,'2',96.04,-49.11,106.506,-49.11,0.99249,0,119.2,0.0,0.2,0.0058,0.1147,1.0,1,100.0,342.353,9.14,1,1.0,0,1.0,0,1.0,0,1.0,0,1.0
635,'3',0.0,0.0,100.284,-49.11,0.99249,0,119.2,0.0,0.2,0.0058,0.1147,1.0,0,100.0,322.353,16.118,1,1.0,0,1.0,0,1.0,0,1.0,0,1.0
635,'4',0.0,0.0,32.263,-32.263,0.99249,0,115.0,0.0,0.19,0.0058,0.1147,1.0,0,100.0,103.706,55.867,1,1.0,0,1.0,0,1.0,0,1.0,0,1.0
639,'99',21.376,24.658,550.0,-550.0,1.0,0,100.0,0.0,1.0,0.0,0.0,1.0,1,100.0,1600.0,13.421,1,1.0,0,1.0,0,1.0,0,1.0,0,1.0
651,'99',2.2,-33.333,33.333,-33.333,1.00061,0,100.0,0.0,1.0,0.0,0.0,1.0,1,100.0,40.0,2.0,1,1.0,0,1.0,0,1.0,0,1.0,0,1.0
659,'1',0.0,0.0,22.5,-22.5,1.007,0,67.5,0.0,0.247,0.0057,0.1137,1.0,0,100.0,348.235,17.412,1,1.0,0,1.0,0,1.0,0,1.0,0,1.0
659,'2',0.0,0.0,22.099,-22.099,1.007,0,67.5,0.0,0.247,0.0057,0.1137,1.0,0,100.0,71.035,23.75,1,1.0,0,1.0,0,1.0,0,1.0,0,1.0
665,'1',0.0,0.0,33.333,-33.333,1.0424,0,100.0,0.0,1.0,0.0,0.0,1.0,0,100.0,336.471,16.824,1,1.0,0,1.0,0,1.0,0,1.0,0,1.0
665,'2',0.0,0.0,33.333,-33.333,1.0424,0,100.0,0.0,1.0,0.0,0.0,1.0,0,100.0,314.118,15.706,1,1.0,0,1.0,0,1.0,0,1.0,0,1.0
666,'1',0.0,0.0,31.567,-31.567,1.0088,0,104.0,0.0,0.186,0.0,0.0,1.0,0,100.0,101.471,71.25,1,1.0,0,1.0,0,1.0,0,1.0,0,1.0
674,'1',0.0,0.0,33.333,-33.333,1.0097,0,100.0,0.0,1.0,0.0,0.0,1.0,0,100.0,340.0,17.0,1,1.0,0,1.0,0,1.0,0,1.0,0,1.0
684,'1',0.0,0.0,98.088,-0.375,0.985,0,100.0,0.0,1.0,0.0,0.0,1.0,0,100.0,315.294,3.667,1,1.0,0,1.0,0,1.0,0,1.0,0,1.0
685,'99',91.498,-32.432,550.0,-550.0,1.0393,0,100.0,0.0,1.0,0.0,0.0,1.0,1,100.0,1600.0,57.448,1,1.0,0,1.0,0,1.0,0,1.0,0,1.0
688,'1',0.0,0.0,22.5,-22.5,1.0156,0,67.5,0.0,0.165,0.0,0.0,1.0,0,100.0,298.823,14.941,1,1.0,0,1.0,0,1.0,0,1.0,0,1.0
688,'2',0.0,0.0,16.335,-16.335,1.0156,0,67.5,0.0,0.165,0.0,0.0,1.0,0,100.0,52.506,15.2,1,1.0,0,1.0,0,1.0,0,1.0,0,1.0
698,'1',298.0,21.9,21.9,-99.0,1.00264,0,100.0,0.0,1.0,0.0,0.0,1.0,1,100.0,350.588,17.529,1,1.0,0,1.0,0,1.0,0,1.0,0,1.0
712,'1',578.912,17.344,81.85,-120.088,0.985,0,515.0,0.0,0.224,0.0,0.0,1.0,1,100.0,681.073,180.5,1,1.0,0,1.0,0,1.0,0,1.0,0,1.0
716,'1',200.48,-73.376,63.18,-73.376,0.985,0,198.9,0.0,0.1686,0.0,0.0,1.0,1,100.0,235.859,9.5,1,1.0,0,1.0,0,1.0,0,1.0,0,1.0
734,'1',53.55,-19.599,13.75,-19.599,0.99221,0,83.65,0.0,0.161,0.007,0.1397,1.0,1,100.0,73.612,19.0,1,1.0,0,1.0,0,1.0,0,1.0,0,1.0
735,'99',533.191,-44.214,550.0,-550.0,1.0364,0,100.0,0.0,1.0,0.0,0.0,1.0,1,100.0,1600.0,80.0,1,1.0,0,1.0,0,1.0,0,1.0,0,1.0
736,'99',76.767,23.796,550.0,-550.0,1.0,0,100.0,0.0,1.0,0.0,0.0,1.0,1,100.0,1600.0,48.199,1,1.0,0,1.0,0,1.0,0,1.0,0,1.0
742,'1',0.0,0.0,59.567,-59.567,1.0174,0,226.0,0.0,0.19,0.0,0.0,1.0,0,100.0,191.471,146.3,1,1.0,0,1.0,0,1.0,0,1.0,0,1.0
750,'1',0.0,0.0,154.54,-182.9,0.985,0,444.44,0.0,0.1776,0.0,0.0,1.0,0,100.0,1080.882,291.6,1,1.0,0,1.0,0,1.0,0,1.0,0,1.0
762,'1',0.0,0.0,96.624,-96.624,0.9982,0,980.0,0.0,0.195,0.0,0.0,1.0,0,100.0,310.588,15.529,1,1.0,0,1.0,0,1.0,0,1.0,0,1.0
764,'1',0.0,0.0,94.428,-94.428,0.98857,0,100.0,0.0,1.0,0.0,0.0,1.0,0,100.0,303.529,15.176,1,1.0,0,1.0,0,1.0,0,1.0,0,1.0
764,'99',2.2,-18.809,18.809,-18.809,0.98857,0,100.0,0.0,1.0,0.0,0.0,1.0,1,100.0,60.459,2.0,1,1.0,0,1.0,0,1.0,0,1.0,0,1.0
767,'1',0.0,0.0,216.58,-140.8,0.99844,0,771.0,0.0,0.232,0.0,0.0,1.0,0,100.0,980.838,342.0,1,1.0,0,1.0,0,1.0,0,1.0,0,1.0
810,'1',0.0,0.0,32.281,-32.281,1.0139,0,108.0,0.0,0.214,0.0,0.0,1.0,0,100.0,103.765,42.75,1,1.0,0,1.0,0,1.0,0,1.0,0,1.0
814,'99',512.715,-24.466,550.0,-550.0,1.0113,0,100.0,0.0,1.0,0.0,0.0,1.0,1,100.0,1600.0,80.0,1,1.0,0,1.0,0,1.0,0,1.0,0,1.0
816,'1',0.0,0.0,33.05,-33.05,1.0139,0,108.0,0.0,0.214,0.0,0.0,1.0,0,100.0,106.235,42.75,1,1.0,0,1.0,0,1.0,0,1.0,0,1.0
818,'1',0.0,0.0,42.273,-42.273,1.0215,0,235.83,0.0,0.2302,0.0,0.0,1.0,0,100.0,135.882,99.75,1,1.0,0,1.0,0,1.0,0,1.0,0,1.0
818,'2',0.0,0.0,88.433,-88.433,1.0215,0,265.3,0.0,0.2302,0.0,0.0,1.0,0,100.0,338.823,16.941,1,1.0,0,1.0,0,1.0,0,1.0,0,1.0
818,'3',0.0,0.0,58.957,-58.957,1.0215,0,176.87,0.0,0.2302,0.0,0.0,1.0,0,100.0,347.059,17.353,1,1.0,0,1.0,0,1.0,0,1.0,0,1.0
820,'1',0.0,0.0,32.281,-32.281,1.0139,0,108.0,0.0,0.214,0.0,0.0,1.0,0,100.0,103.765,42.75,1,1.0,0,1.0,0,1.0,0,1.0,0,1.0
823,'1',212.1,-36.63,77.629,-36.63,1.00005,0,235.83,0.0,0.23018,0.0,0.0,1.0,1,100.0,249.529,46.067,1,1.0,0,1.0,0,1.0,0,1.0,0,1.0
823,'2',0.0,0.0,25.25,-10.89,1.00005,0,265.3,0.0,0.23018,0.0,0.0,1.0,0,100.0,277.941,13.897,1,1.0,0,1.0,0,1.0,0,1.0,0,1.0
823,'3',0.0,0.0,28.823,-28.823,1.00005,0,176.87,0.0,0.23018,0.0,0.0,1.0,0,100.0,92.647,34.358,1,1.0,0,1.0,0,1.0,0,1.0,0,1.0
824,'99',66.313,150.149,550.0,-550.0,1.0163,0,100.0,0.0,1.0,0.0,0.0,1.0,1,100.0,1600.0,9.534,1,1.0,0,1.0,0,1.0,0,1.0,0,1.0
826,'1',0.0,0.0,1.443,-1.443,0.9761,0,4.33,0.0,0.2096,0.0,0.0,1.0,0,100.0,348.235,17.412,1,1.0,0,1.0,0,1.0,0,1.0,0,1.0
826,'2',0.0,0.0,1.443,-1.443,0.9761,0,4.33,0.0,0.2096,0.0,0.0,1.0,0,100.0,309.412,3.42,1,1.0,0,1.0,0,1.0,0,1.0,0,1.0
826,'3',0.0,0.0,1.443,-1.443,0.9761,0,4.33,0.0,0.2096,0.0,0.0,1.0,0,100.0,309.412,15.471,1,1.0,0,1.0,0,1.0,0,1.0,0,1.0
827,'1',0.0,0.0,33.05,-33.05,1.0139,0,108.0,0.0,0.214,0.0,0.0,1.0,0,100.0,106.235,42.75,1,1.0,0,1.0,0,1.0,0,1.0,0,1.0
829,'1',0.0,0.0,131.431,-131.431,1.0155,0,491.41,0.0,0.21,0.0,0.0,1.0,0,100.0,422.471,203.3,1,1.0,0,1.0,0,1.0,0,1.0,0,1.0
829,'2',0.0,0.0,9.662,-9.662,1.0155,0,33.7,0.0,0.21,0.0,0.0,1.0,0,100.0,31.059,11.4,1,1.0,0,1.0,0,1.0,0,1.0,0,1.0
829,'3',0.0,0.0,64.562,-64.562,1.0155,0,242.59,0.0,0.21,0.0,0.0,1.0,0,100.0,207.529,72.2,1,1.0,0,1.0,0,1.0,0,1.0,0,1.0
829,'4',0.0,0.0,0.0,0.0,1.0155,0,300.0,0.0,0.21,0.0,0.0,1.0,0,100.0,324.706,5.7,1,1.0,0,1.0,0,1.0,0,1.0,0,1.0
837,'99',2.2,-33.333,33.333,-33.333,0.98758,0,100.0,0.0,1.0,0.0,0.0,1.0,1,100.0,40.0,2.0,1,1.0,0,1.0,0,1.0,0,1.0,0,1.0
838,'1',348.488,-8.457,127.547,-127.547,1.00243,0,387.5,0.0,0.2596,0.0,0.0,1.0,1,100.0,409.986,171.0,1,1.0,0,1.0,0,1.0,0,1.0,0,1.0
839,'1',0.0,0.0,33.05,-33.05,1.0139,0,108.0,0.0,0.214,0.0,0.0,1.0,0,100.0,106.235,42.75,1,1.0,0,1.0,0,1.0,0,1.0,0,1.0
840,'1',0.0,0.0,33.05,-33.05,1.0139,0,108.0,0.0,0.214,0.0,0.0,1.0,0,100.0,106.235,42.75,1,1.0,0,1.0,0,1.0,0,1.0,0,1.0
841,'1',0.0,0.0,102.992,-102.992,1.00243,0,387.5,0.0,0.2596,0.0,0.0,1.0,0,100.0,331.059,171.0,1,1.0,0,1.0,0,1.0,0,1.0,0,1.0
842,'1',0.0,0.0,41.861,-41.58,1.00005,0,235.83,0.0,0.23018,0.0,0.0,1.0,0,100.0,134.559,76.25,1,1.0,0,1.0,0,1.0,0,1.0,0,1.0
842,'2',0.0,0.0,46.619,-46.619,1.00005,0,265.3,0.0,0.23018,0.0,0.0,1.0,0,100.0,149.853,84.917,1,1.0,0,1.0,0,1.0,0,1.0,0,1.0
842,'3',0.0,0.0,28.786,-28.786,1.00005,0,176.87,0.0,0.23018,0.0,0.0,1.0,0,100.0,92.529,56.642,1,1.0,0,1.0,0,1.0,0,1.0,0,1.0
850,'1',0.0,0.0,251.33,-212.5,1.00243,0,636.62,0.0,0.22,0.0,0.0,1.0,0,100.0,810.595,484.5,1,1.0,0,1.0,0,1.0,0,1.0,0,1.0
853,'1',0.0,0.0,77.629,-77.629,1.0215,0,235.83,0.0,0.2302,0.0,0.0,1.0,0,100.0,249.529,99.75,1,1.0,0,1.0,0,1.0,0,1.0,0,1.0
853,'2',0.0,0.0,88.433,-88.433,1.0215,0,265.3,0.0,0.2302,0.0,0.0,1.0,0,100.0,302.353,15.118,1,1.0,0,1.0,0,1.0,0,1.0,0,1.0
853,'3',0.0,0.0,58.957,-58.957,1.0215,0,176.87,0.0,0.2302,0.0,0.0,1.0,0,100.0,307.059,15.353,1,1.0,0,1.0,0,1.0,0,1.0,0,1.0
858,'99',2.2,-27.786,32.143,-32.143,1.00552,0,100.0,0.0,1.0,0.0,0.0,1.0,1,100.0,40.0,2.0,1,1.0,0,1.0,0,1.0,0,1.0,0,1.0
859,'1',0.0,0.0,11.053,-11.053,0.9891,0,100.0,0.0,0.15,0.0,0.0,1.0,0,100.0,35.529,15.2,1,1.0,0,1.0,0,1.0,0,1.0,0,1.0
862,'99',2.2,-9.151,9.151,-9.151,1.00132,0,100.0,0.0,1.0,0.0,0.0,1.0,1,100.0,40.0,2.0,1,1.0,0,1.0,0,1.0,0,1.0,0,1.0
868,'99',1250.866,101.793,550.0,-550.0,1.0378,0,100.0,0.0,1.0,0.0,0.0,1.0,1,100.0,1764.226,80.0,1,1.0,0,1.0,0,1.0,0,1.0,0,1.0
869,'99',41.719,137.151,550.0,-550.0,1.0275,0,100.0,0.0,1.0,0.0,0.0,1.0,1,100.0,1600.0,26.194,1,1.0,0,1.0,0,1.0,0,1.0,0,1.0
871,'1',931.364,-49.5,340.879,-49.5,1.006,0,1020.0,0.0,0.28,0.0,0.0,1.0,1,100.0,1095.722,646.781,1,1.0,0,1.0,0,1.0,0,1.0,0,1.0
873,'1',0.0,0.0,29.207,-29.207,1.0332,0,100.0,0.0036,0.166,0.0,0.0,1.0,0,100.0,93.882,31.35,1,1.0,0,1.0,0,1.0,0,1.0,0,1.0
879,'1',0.0,0.0,33.333,-33.333,1.0332,0,100.0,0.0035,0.23,0.0,0.0,1.0,0,100.0,122.294,74.1,1,1.0,0,1.0,0,1.0,0,1.0,0,1.0
880,'99',2.2,-31.492,31.492,-31.492,1.01442,0,100.0,0.0,1.0,0.0,0.0,1.0,1,100.0,40.0,2.0,1,1.0,0,1.0,0,1.0,0,1.0,0,1.0
882,'1',0.0,0.0,201.758,-201.758,1.0332,0,732.0,0.0005,0.205,0.0,0.0,1.0,0,100.0,648.529,498.75,1,1.0,0,1.0,0,1.0,0,1.0,0,1.0
883,'99',49.826,-54.981,550.0,-550.0,1.02,0,100.0,0.0,1.0,0.0,0.0,1.0,1,100.0,1600.0,31.284,1,1.0,0,1.0,0,1.0,0,1.0,0,1.0
884,'1',0.0,0.0,27.285,-27.285,1.0332,0,100.0,0.0036,0.166,0.0,0.0,1.0,0,100.0,87.706,31.35,1,1.0,0,1.0,0,1.0,0,1.0,0,1.0
886,'99',2.2,-33.333,33.333,-33.333,1.00271,0,100.0,0.0,1.0,0.0,0.0,1.0,1,100.0,40.0,2.0,1,1.0,0,1.0,0,1.0,0,1.0,0,1.0
888,'99',2.2,-9.15,9.15,-9.15,1.00133,0,100.0,0.0,1.0,0.0,0.0,1.0,1,100.0,40.0,2.0,1,1.0,0,1.0,0,1.0,0,1.0,0,1.0
890,'1',0.0,0.0,26.901,-26.901,1.0021,0,100.0,0.0048,0.128,0.0,0.0,1.0,0,100.0,86.471,29.45,1,1.0,0,1.0,0,1.0,0,1.0,0,1.0
892,'1',0.0,0.0,102.48,-102.48,1.00824,0,214.0,0.0003,0.15,0.0,0.0,1.0,0,100.0,329.412,16.471,1,1.0,0,1.0,0,1.0,0,1.0,0,1.0
892,'2',0.0,0.0,62.451,-62.451,1.00824,0,214.0,0.0003,0.15,0.0,0.0,1.0,0,100.0,200.741,80.75,1,1.0,0,1.0,0,1.0,0,1.0,0,1.0
893,'1',0.0,0.0,71.333,-71.333,1.0332,0,214.0,0.0003,0.15,0.0,0.0,1.0,0,100.0,328.235,16.412,1,1.0,0,1.0,0,1.0,0,1.0,0,1.0
893,'2',0.0,0.0,64.562,-64.562,1.0332,0,214.0,0.0003,0.15,0.0,0.0,1.0,0,100.0,207.529,89.3,1,1.0,0,1.0,0,1.0,0,1.0,0,1.0
896,'1',709.7,-75.17,259.75,-75.17,1.00824,0,732.0,0.0005,0.205,0.0,0.0,1.0,1,100.0,834.941,473.133,1,1.0,0,1.0,0,1.0,0,1.0,0,1.0
901,'1',0.0,0.0,33.333,-33.333,1.0332,0,100.0,0.0035,0.23,0.0,0.0,1.0,0,100.0,122.294,57.0,1,1.0,0,1.0,0,1.0,0,1.0,0,1.0
902,'1',0.0,0.0,220.937,-49.5,1.006,0,1012.0,0.0,0.292,0.0,0.0,1.0,0,100.0,1300.045,736.692,1,1.0,0,1.0,0,1.0,0,1.0,0,1.0
905,'1',0.0,0.0,11.749,-11.749,0.9891,0,100.0,0.0,0.15,0.0,0.0,1.0,0,100.0,37.765,17.1,1,1.0,0,1.0,0,1.0,0,1.0,0,1.0
908,'1',0.0,0.0,55.248,-55.248,0.999,0,250.0,0.0,0.243,0.0,0.0,1.0,0,100.0,177.588,8.879,1,1.0,0,1.0,0,1.0,0,1.0,0,1.0
910,'1',0.0,0.0,0.417,-0.417,1.00782,0,1.25,0.0,0.15,0.02,0.78,1.025,0,100.0,331.765,16.588,1,1.0,0,1.0,0,1.0,0,1.0,0,1.0
910,'99',2.2,-15.1,18.464,-18.464,1.00782,0,100.0,0.0,1.0,0.0,0.0,1.0,1,100.0,59.352,2.0,1,1.0,0,1.0,0,1.0,0,1.0,0,1.0
913,'1',0.0,0.0,10.1,-9.775,0.992,0,25.98,0.0,0.195,0.0,0.0,1.0,0,100.0,75.074,20.65,1,1.0,0,1.0,0,1.0,0,1.0,0,1.0
914,'1',0.0,0.0,40.352,-40.352,1.0243,0,128.0,0.0,0.115,0.0,0.0,1.0,0,100.0,129.706,99.75,1,1.0,0,1.0,0,1.0,0,1.0,0,1.0
917,'1',0.0,0.0,21.136,-21.136,0.9454,0,100.0,0.0,1.0,0.0,0.0,1.0,0,100.0,67.941,42.75,1,1.0,0,1.0,0,1.0,0,1.0,0,1.0
918,'1',0.0,0.0,31.183,-31.183,1.01,0,113.0,0.0,0.224,0.0,0.0,1.0,0,100.0,100.235,70.2,1,1.0,0,1.0,0,1.0,0,1.0,0,1.0
918,'2',0.0,0.0,29.968,-29.968,1.01,0,113.0,0.0,0.224,0.0,0.0,1.0,0,100.0,96.329,66.88,1,1.0,0,1.0,0,1.0,0,1.0,0,1.0
919,'1',21.75,-3.96,10.1,-3.96,0.99949,0,43.45,0.0,0.165,0.0,0.0,1.0,1,100.0,64.953,4.75,1,1.0,0,1.0,0,1.0,0,1.0,0,1.0
924,'99',175.4,-24.821,33.333,-33.333,1.01041,0,100.0,0.0,1.0,0.0,0.0,1.0,1,100.0,192.94,8.254,1,1.0,0,1.0,0,1.0,0,1.0,0,1.0
929,'1',0.0,0.0,10.1,-10.287,0.992,0,44.0,0.0,0.195,0.0,0.0,1.0,0,100.0,48.176,4.75,1,1.0,0,1.0,0,1.0,0,1.0,0,1.0
931,'1',0.0,0.0,21.136,-21.136,0.9454,0,100.0,0.0,1.0,0.0,0.0,1.0,0,100.0,67.941,42.75,1,1.0,0,1.0,0,1.0,0,1.0,0,1.0
931,'2',0.0,0.0,21.136,-21.136,0.9454,0,100.0,0.0,1.0,0.0,0.0,1.0,0,100.0,67.941,42.75,1,1.0,0,1.0,0,1.0,0,1.0,0,1.0
...
0 / END OF GENERATOR DATA BEGIN BRANCH DATA
3,17,'1',0.0062,0.0245,0.0,260.0,312.0,390.0,0.0,0.0,0.0,0.0,1,1,0.0,1,1.0,0,1.0,0,1.0,0,1.0
3,25,'1',0.0044,0.0165,0.0,260.0,312.0,390.0,0.0,0.0,0.0,0.0,1,2,0.0,1,1.0,0,1.0,0,1.0,0,1.0
6,17,'1',0.0163,0.0655,0.0,260.0,312.0,390.0,0.0,0.0,0.0,0.0,1,1,0.0,1,1.0,0,1.0,0,1.0,0,1.0
9,15,'1',0.0257,0.0526,0.0,62.0,81.0,81.0,0.0,0.0,0.0,0.0,1,1,0.0,1,1.0,0,1.0,0,1.0,0,1.0
9,18,'1',0.0063,0.0149,0.0,74.0,88.0,88.0,0.0,0.0,0.0,0.0,1,1,0.0,1,1.0,0,1.0,0,1.0,0,1.0
10,12,'1',0.03,0.0878,0.0,62.0,81.0,81.0,0.0,0.0,0.0,0.0,1,1,0.0,1,1.0,0,1.0,0,1.0,0,1.0
10,16,'1',0.03,0.12929,0.0,57.0,64.0,64.0,0.0,0.0,0.0,0.0,1,1,0.0,1,1.0,0,1.0,0,1.0,0,1.0
11,23,'1',0.03,0.14678,0.0,260.0,312.0,390.0,0.0,0.0,0.0,0.0,1,2,0.0,1,1.0,0,1.0,0,1.0,0,1.0
11,25,'1',0.01389,0.0333,0.0,260.0,312.0,390.0,0.0,0.0,0.0,0.0,1,2,0.0,1,1.0,0,1.0,0,1.0,0,1.0
12,25,'1',0.03,0.1182,0.0,36.0,54.0,54.0,0.0,0.0,0.0,0.0,1,2,0.0,1,1.0,0,1.0,0,1.0,0,1.0
13,14,'1',0.0106,0.0205,0.0,62.0,81.0,81.0,0.0,0.0,0.0,0.0,1,1,0.0,1,1.0,0,1.0,0,1.0,0,1.0
13,16,'1',0.0269,0.0519,0.0,62.0,81.0,81.0,0.0,0.0,0.0,0.0,1,1,0.0,1,1.0,0,1.0,0,1.0,0,1.0
16,18,'1',0.03,0.0794,0.0,74.0,88.0,88.0,0.0,0.0,0.0,0.0,1,1,0.0,1,1.0,0,1.0,0,1.0,0,1.0
16,991,'TL',0.0001,0.01,0.0,83.7,98.6,125.55,0.0,0.0,0.0,0.0,1,2,0.0,18,1.0,0,1.0,0,1.0,0,1.0
18,26,'1',0.03,0.0826,0.0,43.0,47.0,47.0,0.0,0.0,0.0,0.0,1,2,0.0,1,1.0,0,1.0,0,1.0,0,1.0
19,26,'1',0.03,0.0751,0.0,74.0,95.0,95.0,0.0,0.0,0.0,0.0,1,2,0.0,1,1.0,0,1.0,0,1.0,0,1.0
23,4593,'TL',0.0001,0.01,0.0,83.7,98.6,125.55,0.0,0.0,0.0,0.0,1,1,0.0,14,1.0,0,1.0,0,1.0,0,1.0
28,58,'1',0.0013,0.0099,0.02132,260.0,312.0,390.0,0.0,0.0,0.0,0.0,1,2,0.0,1,1.0,0,1.0,0,1.0,0,1.0
30,34,'1',0.03,0.15,0.0,260.0,312.0,390.0,0.0,0.0,0.0,0.0,1,1,0.0,1,1.0,0,1.0,0,1.0,0,1.0
30,37,'1',0.03,0.15,0.0,260.0,312.0,390.0,0.0,0.0,0.0,0.0,1,2,0.0,1,1.0,0,1.0,0,1.0,0,1.0
30,55,'1',0.03,0.15,0.0,260.0,312.0,390.0,0.0,0.0,0.0,0.0,1,2,0.0,1,1.0,0,1.0,0,1.0,0,1.0
30,56,'1',0.03,0.15,0.0,260.0,312.0,390.0,0.0,0.0,0.0,0.0,1,2,0.0,1,1.0,0,1.0,0,1.0,0,1.0
30,60,'1',0.03,0.15,0.0,260.0,312.0,390.0,0.0,0.0,0.0,0.0,1,1,0.0,1,1.0,0,1.0,0,1.0,0,1.0
30,71,'1',0.03,0.15,0.0,260.0,312.0,390.0,0.0,0.0,0.0,0.0,1,1,0.0,1,1.0,0,1.0,0,1.0,0,1.0
31,36,'1',0.03,0.15,0.0,260.0,312.0,390.0,0.0,0.0,0.0,0.0,1,1,0.0,1,1.0,0,1.0,0,1.0,0,1.0
31,42,'1',0.0111,0.15,0.0,260.0,312.0,390.0,0.0,0.0,0.0,0.0,1,1,0.0,1,1.0,0,1.0,0,1.0,0,1.0
31,60,'1',0.03,0.15,0.0,260.0,312.0,390.0,0.0,0.0,0.0,0.0,1,1,0.0,1,1.0,0,1.0,0,1.0,0,1.0
32,36,'1',0.03,0.15,0.0,260.0,312.0,390.0,0.0,0.0,0.0,0.0,1,1,0.0,1,1.0,0,1.0,0,1.0,0,1.0
32,74,'1',0.03,0.15,0.0,260.0,312.0,390.0,0.0,0.0,0.0,0.0,1,1,0.0,1,1.0,0,1.0,0,1.0,0,1.0
33,43,'1',0.0042,0.0253,0.0485,260.0,312.0,390.0,0.0,0.0,0.0,0.0,1,1,0.0,1,1.0,0,1.0,0,1.0,0,1.0
33,81,'1',0.0046,0.0315,0.059,260.0,312.0,390.0,0.0,0.0,0.0,0.0,1,2,0.0,1,1.0,0,1.0,0,1.0,0,1.0
34,55,'1',-0.0656,0.15,0.0,260.0,312.0,390.0,0.0,0.0,0.0,0.0,1,2,0.0,1,1.0,0,1.0,0,1.0,0,1.0
34,60,'1',0.03,0.15,0.0,260.0,312.0,390.0,0.0,0.0,0.0,0.0,1,1,0.0,1,1.0,0,1.0,0,1.0,0,1.0
34,71,'1',0.0162,0.15,0.0,260.0,312.0,390.0,0.0,0.0,0.0,0.0,1,1,0.0,1,1.0,0,1.0,0,1.0,0,1.0
35,37,'1',-0.0598,0.15,0.0,260.0,312.0,390.0,0.0,0.0,0.0,0.0,1,2,0.0,1,1.0,0,1.0,0,1.0,0,1.0
35,56,'1',-0.0578,0.15,0.0,260.0,312.0,390.0,0.0,0.0,0.0,0.0,1,2,0.0,1,1.0,0,1.0,0,1.0,0,1.0
35,61,'1',0.01979,0.0496,0.0,260.0,312.0,390.0,0.0,0.0,0.0,0.0,1,2,0.0,1,1.0,0,1.0,0,1.0,0,1.0
36,37,'1',0.03,0.15,0.0,260.0,312.0,390.0,0.0,0.0,0.0,0.0,1,2,0.0,1,1.0,0,1.0,0,1.0,0,1.0
36,42,'1',0.03,0.15,0.0,260.0,312.0,390.0,0.0,0.0,0.0,0.0,1,2,0.0,1,1.0,0,1.0,0,1.0,0,1.0
36,56,'1',0.03,0.15,0.0,260.0,312.0,390.0,0.0,0.0,0.0,0.0,1,2,0.0,1,1.0,0,1.0,0,1.0,0,1.0
36,60,'1',0.03,0.15,0.0,260.0,312.0,390.0,0.0,0.0,0.0,0.0,1,1,0.0,1,1.0,0,1.0,0,1.0,0,1.0
36,61,'1',0.03,0.15,0.0,260.0,312.0,390.0,0.0,0.0,0.0,0.0,1,2,0.0,1,1.0,0,1.0,0,1.0,0,1.0
36,74,'1',0.03,0.15,0.0,260.0,312.0,390.0,0.0,0.0,0.0,0.0,1,1,0.0,1,1.0,0,1.0,0,1.0,0,1.0
37,55,'1',0.03,0.15,0.0,260.0,312.0,390.0,0.0,0.0,0.0,0.0,1,1,0.0,1,1.0,0,1.0,0,1.0,0,1.0
37,56,'1',0.0009,0.0008,0.0,260.0,312.0,390.0,0.0,0.0,0.0,0.0,1,2,0.0,1,1.0,0,1.0,0,1.0,0,1.0
37,60,'1',0.03,0.15,0.0,260.0,312.0,390.0,0.0,0.0,0.0,0.0,1,1,0.0,1,1.0,0,1.0,0,1.0,0,1.0
37,61,'1',0.01526,0.02962,0.0,260.0,312.0,390.0,0.0,0.0,0.0,0.0,1,1,0.0,1,1.0,0,1.0,0,1.0,0,1.0
38,74,'1',0.03,0.15,0.0,260.0,312.0,390.0,0.0,0.0,0.0,0.0,1,1,0.0,1,1.0,0,1.0,0,1.0,0,1.0
38,76,'1',0.03,0.15,0.0,260.0,312.0,390.0,0.0,0.0,0.0,0.0,1,1,0.0,1,1.0,0,1.0,0,1.0,0,1.0
39,45,'1',0.0136,0.0903,0.1732,260.0,312.0,390.0,0.0,0.0,0.0,0.0,1,1,0.0,1,1.0,0,1.0,0,1.0,0,1.0
39,183,'TL',0.0001,0.01,0.0,133.13,159.75,199.69,0.0,0.0,0.0,0.0,1,1,0.0,150,1.0,0,1.0,0,1.0,0,1.0
40,49,'1',0.0154,0.0991,0.17817,546.73,656.08,820.1,0.0,0.0,0.0,0.0,1,1,0.0,1,1.0,0,1.0,0,1.0,0,1.0
40,58,'1',0.0122,0.0943,0.18743,260.0,312.0,390.0,0.0,0.0,0.0,0.0,1,2,0.0,1,1.0,0,1.0,0,1.0,0,1.0
40,66,'1',0.0065,0.0503,0.10008,260.0,312.0,390.0,0.0,0.0,0.0,0.0,1,1,0.0,1,1.0,0,1.0,0,1.0,0,1.0
40,67,'1',0.0022,0.0262,0.05566,675.98,811.18,1013.98,0.0,0.0,0.0,0.0,1,1,0.0,1,1.0,0,1.0,0,1.0,0,1.0
40,67,'2',0.0027,0.0268,0.05696,673.14,807.77,1009.71,0.0,0.0,0.0,0.0,1,1,0.0,1,1.0,0,1.0,0,1.0,0,1.0
41,1978,'TL',0.0001,0.01,0.0,351.0,386.1,421.2,0.0,0.0,0.0,0.0,1,1,0.0,122,1.0,0,1.0,0,1.0,0,1.0
42,60,'1',0.03,0.15,0.0,260.0,312.0,390.0,0.0,0.0,0.0,0.0,1,1,0.0,1,1.0,0,1.0,0,1.0,0,1.0
43,736,'TL',0.0001,0.01,0.0,204.0,224.4,244.8,0.0,0.0,0.0,0.0,1,1,0.0,151,1.0,0,1.0,0,1.0,0,1.0
44,70,'1',0.0123,0.0822,0.15137,260.0,312.0,390.0,0.0,0.0,0.0,0.0,1,2,0.0,1,1.0,0,1.0,0,1.0,0,1.0
44,79,'1',0.0057,0.0382,0.07047,260.0,312.0,390.0,0.0,0.0,0.0,0.0,1,2,0.0,1,1.0,0,1.0,0,1.0,0,1.0
45,62,'1',0.00605,0.03642,0.06956,260.0,312.0,390.0,0.0,0.0,0.0,0.0,1,2,0.0,1,1.0,0,1.0,0,1.0,0,1.0
45,79,'1',0.00203,0.01191,0.02399,260.0,312.0,390.0,0.0,0.0,0.0,0.0,1,2,0.0,1,1.0,0,1.0,0,1.0,0,1.0
46,80,'1',0.00116,0.0314,2.6586,674.53,809.44,1011.8,0.0,0.0,0.0,0.0,1,2,0.0,1,1.0,0,1.0,0,1.0,0,1.0
49,72,'1',0.0106,0.0684,0.13505,260.0,312.0,390.0,0.0,0.0,0.0,0.0,1,2,0.0,1,1.0,0,1.0,0,1.0,0,1.0
49,75,'1',0.0112,0.0727,0.14343,260.0,312.0,390.0,0.0,0.0,0.0,0.0,1,1,0.0,1,1.0,0,1.0,0,1.0,0,1.0
49,77,'1',0.00197,0.01283,0.02477,260.0,312.0,390.0,0.0,0.0,0.0,0.0,1,2,0.0,1,1.0,0,1.0,0,1.0,0,1.0
50,2001,'TL',0.0001,0.01,0.0,390.75,468.9,586.12,0.0,0.0,0.0,0.0,1,2,0.0,124,1.0,0,1.0,0,1.0,0,1.0
51,63,'1',0.0045,0.0221,0.00642,260.0,312.0,390.0,0.0,0.0,0.0,0.0,1,1,0.0,1,1.0,0,1.0,0,1.0,0,1.0
53,72,'1',0.0034,0.0221,0.04362,260.0,312.0,390.0,0.0,0.0,0.0,0.0,1,2,0.0,1,1.0,0,1.0,0,1.0,0,1.0
54,76,'1',0.03,0.15,0.0,260.0,312.0,390.0,0.0,0.0,0.0,0.0,1,1,0.0,1,1.0,0,1.0,0,1.0,0,1.0
54,1587,'TL',0.0001,0.01,0.0,83.7,98.6,125.55,0.0,0.0,0.0,0.0,1,2,0.0,126,1.0,0,1.0,0,1.0,0,1.0
55,56,'1',0.03,0.15,0.0,260.0,312.0,390.0,0.0,0.0,0.0,0.0,1,2,0.0,1,1.0,0,1.0,0,1.0,0,1.0
55,60,'1',0.03,0.15,0.0,260.0,312.0,390.0,0.0,0.0,0.0,0.0,1,1,0.0,1,1.0,0,1.0,0,1.0,0,1.0
55,71,'1',-0.0656,0.15,0.0,260.0,312.0,390.0,0.0,0.0,0.0,0.0,1,1,0.0,1,1.0,0,1.0,0,1.0,0,1.0
56,61,'1',0.01598,0.03011,0.0,260.0,312.0,390.0,0.0,0.0,0.0,0.0,1,1,0.0,1,1.0,0,1.0,0,1.0,0,1.0
57,59,'1',0.01265,0.06079,0.0289,260.0,312.0,390.0,0.0,0.0,0.0,0.0,1,1,0.0,1,1.0,0,1.0,0,1.0,0,1.0
57,68,'1',0.0239,0.1186,0.06562,260.0,312.0,390.0,0.0,0.0,0.0,0.0,1,1,0.0,1,1.0,0,1.0,0,1.0,0,1.0
58,70,'1',0.0001,0.001,0.00208,260.0,312.0,390.0,0.0,0.0,0.0,0.0,1,1,0.0,1,1.0,0,1.0,0,1.0,0,1.0
60,71,'1',0.03,0.15,0.0,260.0,312.0,390.0,0.0,0.0,0.0,0.0,1,2,0.0,1,1.0,0,1.0,0,1.0,0,1.0
62,69,'1',0.00421,0.0253,0.04874,260.0,312.0,390.0,0.0,0.0,0.0,0.0,1,2,0.0,1,1.0,0,1.0,0,1.0,0,1.0
64,65,'1',0.0044,0.034,0.06751,260.0,312.0,390.0,0.0,0.0,0.0,0.0,1,1,0.0,1,1.0,0,1.0,0,1.0,0,1.0
64,66,'1',0.0049,0.0375,0.07449,416.0,499.2,624.01,0.0,0.0,0.0,0.0,1,2,0.0,1,1.0,0,1.0,0,1.0,0,1.0
65,67,'1',0.0048,0.0569,0.12161,260.0,312.0,390.0,0.0,0.0,0.0,0.0,1,2,0.0,1,1.0,0,1.0,0,1.0,0,1.0
66,70,'1',0.0091,0.0698,0.13869,260.0,312.0,390.0,0.0,0.0,0.0,0.0,1,2,0.0,1,1.0,0,1.0,0,1.0,0,1.0
69,731,'TL',0.0001,0.01,0.0,161.0,177.1,193.2,0.0,0.0,0.0,0.0,1,2,0.0,152,1.0,0,1.0,0,1.0,0,1.0
73,1986,'TL',0.0001,0.01,0.0,238.0,261.8,285.6,0.0,0.0,0.0,0.0,1,2,0.0,123,1.0,0,1.0,0,1.0,0,1.0
77,81,'1',0.01244,0.081,0.1561,260.0,312.0,390.0,0.0,0.0,0.0,0.0,1,2,0.0,1,1.0,0,1.0,0,1.0,0,1.0
78,2013,'TL',0.0001,0.01,0.0,128.1,153.72,192.15,0.0,0.0,0.0,0.0,1,2,0.0,125,1.0,0,1.0,0,1.0,0,1.0
83,182,'1',0.00183,0.00937,0.00122,187.0,190.0,190.0,0.0,0.0,0.0,0.0,1,2,0.0,1,1.0,0,1.0,0,1.0,0,1.0
83,394,'1',0.00022,0.00113,0.00012,141.0,153.0,153.0,0.0,0.0,0.0,0.0,1,2,0.0,1,1.0,0,1.0,0,1.0,0,1.0
85,314,'1',0.01166,0.04179,0.00542,128.0,128.0,128.0,0.0,0.0,0.0,0.0,1,1,0.0,1,1.0,0,1.0,0,1.0,0,1.0
85,778,'1',0.00022,0.001,0.0,128.0,128.0,128.0,0.0,0.0,0.0,0.0,1,2,0.0,1,1.0,0,1.0,0,1.0,0,1.0
90,428,'1',0.00763,0.03119,0.00742,359.0,359.0,359.0,0.0,0.0,0.0,0.0,1,2,0.0,1,1.0,0,1.0,0,1.0,0,1.0
90,1214,'TL',0.0001,0.01,0.0,128.57,154.28,192.85,0.0,0.0,0.0,0.0,1,2,0.0,166,1.0,0,1.0,0,1.0,0,1.0
91,674,'1',0.00046,0.00369,0.01465,782.0,782.0,782.0,0.0,0.0,0.0,0.0,1,1,0.0,1,1.0,0,1.0,0,1.0,0,1.0
91,759,'1',0.00108,0.00864,0.0032,782.0,782.0,782.0,0.0,0.0,0.0,0.0,1,1,0.0,1,1.0,0,1.0,0,1.0,0,1.0
92,404,'1',0.00131,0.00851,0.00107,241.0,241.0,241.0,0.0,0.0,0.0,0.0,1,1,0.0,1,1.0,0,1.0,0,1.0,0,1.0
94,753,'1',0.00056,0.00423,0.01581,1080.0,1080.0,1080.0,0.0,0.0,0.0,0.0,1,2,0.0,1,1.0,0,1.0,0,1.0,0,1.0
96,642,'1',0.0033,0.01223,0.00197,141.0,153.0,153.0,0.0,0.0,0.0,0.0,1,1,0.0,1,1.0,0,1.0,0,1.0,0,1.0
97,582,'1',0.00036,0.00336,0.013,940.0,1020.0,1020.0,0.0,0.0,0.0,0.0,1,2,0.0,1,1.0,0,1.0,0,1.0,0,1.0
...